<?xml version="1.0" encoding="UTF-8"?>

<!-- generated on 2025-03-30 11:38:45.252876 by randomTrips.py v1_22_0+0002-63e50f52594
<configuration>
    <net-file value="traffic_dataset\scenario_2\network.net.xml"/>
    <output-trip-file value="traffic_dataset\scenario_2\routes.rou.xml"/>
    <vehicle-class value="passenger"/>
    <fringe-factor value="10"/>
    <allow-fringe value="True"/>
    <validate value="True"/>
    <period value="4.115206743475294"/>
</configuration>
-->

<!-- generated on 2025-03-30 11:38:45 by Eclipse SUMO duarouter Version 1.22.0
<duarouterConfiguration xmlns:xsi="http://www.w3.org/2001/XMLSchema-instance" xsi:noNamespaceSchemaLocation="http://sumo.dlr.de/xsd/duarouterConfiguration.xsd">

    <input>
        <net-file value="traffic_dataset\scenario_2\network.net.xml"/>
        <route-files value="traffic_dataset\scenario_2\routes.rou.xml"/>
    </input>

    <output>
        <output-file value="traffic_dataset\scenario_2\routes.rou.xml.tmp"/>
        <alternatives-output value="NUL"/>
        <write-trips value="true"/>
    </output>

    <time>
        <begin value="0"/>
        <end value="3600.0"/>
    </time>

    <report>
        <no-warnings value="true"/>
        <ignore-errors value="true"/>
        <no-step-log value="true"/>
    </report>

</duarouterConfiguration>
-->

<routes xmlns:xsi="http://www.w3.org/2001/XMLSchema-instance" xsi:noNamespaceSchemaLocation="http://sumo.dlr.de/xsd/routes_file.xsd">
    <vType id="passenger" vClass="passenger"/>
    <trip id="0" type="passenger" depart="0.00" from="DB" to="BA"/>
    <trip id="1" type="passenger" depart="4.12" from="BD" to="BA"/>
    <trip id="2" type="passenger" depart="8.23" from="DB" to="BD"/>
    <trip id="3" type="passenger" depart="12.35" from="EB" to="BA"/>
    <trip id="4" type="passenger" depart="16.46" from="CB" to="BA"/>
    <trip id="5" type="passenger" depart="20.58" from="AB" to="BD"/>
    <trip id="6" type="passenger" depart="24.69" from="AB" to="BA"/>
    <trip id="7" type="passenger" depart="28.81" from="DB" to="BD"/>
    <trip id="8" type="passenger" depart="32.92" from="AB" to="BD"/>
    <trip id="9" type="passenger" depart="37.04" from="EB" to="AB"/>
    <trip id="10" type="passenger" depart="41.15" from="EB" to="BD"/>
    <trip id="11" type="passenger" depart="45.27" from="CB" to="BA"/>
    <trip id="12" type="passenger" depart="49.38" from="EB" to="BC"/>
    <trip id="13" type="passenger" depart="53.50" from="AB" to="BA"/>
    <trip id="14" type="passenger" depart="57.61" from="EB" to="BD"/>
    <trip id="15" type="passenger" depart="61.73" from="EB" to="BE"/>
    <trip id="16" type="passenger" depart="65.84" from="CB" to="DB"/>
    <trip id="17" type="passenger" depart="69.96" from="CB" to="BD"/>
    <trip id="18" type="passenger" depart="74.07" from="EB" to="BD"/>
    <trip id="19" type="passenger" depart="78.19" from="EB" to="BD"/>
    <trip id="20" type="passenger" depart="82.30" from="DB" to="BA"/>
    <trip id="21" type="passenger" depart="86.42" from="BA" to="BC"/>
    <trip id="22" type="passenger" depart="90.53" from="AB" to="BA"/>
    <trip id="23" type="passenger" depart="94.65" from="AB" to="BC"/>
    <trip id="24" type="passenger" depart="98.76" from="DB" to="BC"/>
    <trip id="25" type="passenger" depart="102.88" from="CB" to="BA"/>
    <trip id="26" type="passenger" depart="107.00" from="BC" to="CB"/>
    <trip id="27" type="passenger" depart="111.11" from="DB" to="BD"/>
    <trip id="28" type="passenger" depart="115.23" from="AB" to="BE"/>
    <trip id="29" type="passenger" depart="119.34" from="AB" to="BC"/>
    <trip id="30" type="passenger" depart="123.46" from="EB" to="BD"/>
    <trip id="31" type="passenger" depart="127.57" from="DB" to="BD"/>
    <trip id="32" type="passenger" depart="131.69" from="EB" to="BE"/>
    <trip id="33" type="passenger" depart="135.80" from="BA" to="BA"/>
    <trip id="34" type="passenger" depart="139.92" from="BE" to="BC"/>
    <trip id="35" type="passenger" depart="144.03" from="AB" to="CB"/>
    <trip id="36" type="passenger" depart="148.15" from="EB" to="BC"/>
    <trip id="37" type="passenger" depart="152.26" from="DB" to="BC"/>
    <trip id="38" type="passenger" depart="156.38" from="EB" to="BC"/>
    <trip id="39" type="passenger" depart="160.49" from="BC" to="BA"/>
    <trip id="40" type="passenger" depart="164.61" from="DB" to="BC"/>
    <trip id="41" type="passenger" depart="168.72" from="DB" to="BE"/>
    <trip id="42" type="passenger" depart="172.84" from="CB" to="BA"/>
    <trip id="43" type="passenger" depart="176.95" from="EB" to="BD"/>
    <trip id="44" type="passenger" depart="181.07" from="AB" to="BA"/>
    <trip id="45" type="passenger" depart="185.18" from="AB" to="BD"/>
    <trip id="46" type="passenger" depart="189.30" from="EB" to="BC"/>
    <trip id="47" type="passenger" depart="193.41" from="AB" to="BC"/>
    <trip id="48" type="passenger" depart="197.53" from="EB" to="BD"/>
    <trip id="49" type="passenger" depart="201.65" from="EB" to="BE"/>
    <trip id="50" type="passenger" depart="205.76" from="AB" to="BE"/>
    <trip id="51" type="passenger" depart="209.88" from="DB" to="BD"/>
    <trip id="52" type="passenger" depart="213.99" from="BC" to="BD"/>
    <trip id="53" type="passenger" depart="218.11" from="AB" to="BC"/>
    <trip id="54" type="passenger" depart="222.22" from="CB" to="CB"/>
    <trip id="55" type="passenger" depart="226.34" from="EB" to="BC"/>
    <trip id="56" type="passenger" depart="230.45" from="CB" to="BA"/>
    <trip id="57" type="passenger" depart="234.57" from="EB" to="BE"/>
    <trip id="58" type="passenger" depart="238.68" from="BE" to="BD"/>
    <trip id="59" type="passenger" depart="242.80" from="DB" to="BA"/>
    <trip id="60" type="passenger" depart="246.91" from="DB" to="BD"/>
    <trip id="61" type="passenger" depart="251.03" from="EB" to="BD"/>
    <trip id="62" type="passenger" depart="255.14" from="AB" to="BC"/>
    <trip id="63" type="passenger" depart="259.26" from="AB" to="BE"/>
    <trip id="64" type="passenger" depart="263.37" from="EB" to="BE"/>
    <trip id="65" type="passenger" depart="267.49" from="BE" to="BA"/>
    <trip id="66" type="passenger" depart="271.60" from="EB" to="CB"/>
    <trip id="67" type="passenger" depart="275.72" from="AB" to="BD"/>
    <trip id="68" type="passenger" depart="279.83" from="AB" to="BE"/>
    <trip id="69" type="passenger" depart="283.95" from="DB" to="BA"/>
    <trip id="70" type="passenger" depart="288.06" from="CB" to="BD"/>
    <trip id="71" type="passenger" depart="292.18" from="BC" to="BE"/>
    <trip id="72" type="passenger" depart="296.29" from="CB" to="BA"/>
    <trip id="73" type="passenger" depart="300.41" from="CB" to="BE"/>
    <trip id="74" type="passenger" depart="304.53" from="AB" to="BC"/>
    <trip id="75" type="passenger" depart="308.64" from="EB" to="BD"/>
    <trip id="76" type="passenger" depart="312.76" from="CB" to="BD"/>
    <trip id="77" type="passenger" depart="316.87" from="AB" to="BA"/>
    <trip id="78" type="passenger" depart="320.99" from="CB" to="BD"/>
    <trip id="79" type="passenger" depart="325.10" from="BA" to="BA"/>
    <trip id="80" type="passenger" depart="329.22" from="AB" to="BD"/>
    <trip id="81" type="passenger" depart="333.33" from="BA" to="BE"/>
    <trip id="82" type="passenger" depart="337.45" from="EB" to="BA"/>
    <trip id="83" type="passenger" depart="341.56" from="BA" to="BD"/>
    <trip id="84" type="passenger" depart="345.68" from="AB" to="BA"/>
    <trip id="85" type="passenger" depart="349.79" from="EB" to="BD"/>
    <trip id="86" type="passenger" depart="353.91" from="CB" to="BE"/>
    <trip id="87" type="passenger" depart="358.02" from="EB" to="BA"/>
    <trip id="88" type="passenger" depart="362.14" from="AB" to="BC"/>
    <trip id="89" type="passenger" depart="366.25" from="CB" to="BC"/>
    <trip id="90" type="passenger" depart="370.37" from="DB" to="BD"/>
    <trip id="91" type="passenger" depart="374.48" from="EB" to="BA"/>
    <trip id="92" type="passenger" depart="378.60" from="CB" to="BC"/>
    <trip id="93" type="passenger" depart="382.71" from="EB" to="BA"/>
    <trip id="94" type="passenger" depart="386.83" from="AB" to="BC"/>
    <trip id="95" type="passenger" depart="390.94" from="CB" to="BC"/>
    <trip id="96" type="passenger" depart="395.06" from="BA" to="BE"/>
    <trip id="97" type="passenger" depart="399.18" from="CB" to="BE"/>
    <trip id="98" type="passenger" depart="403.29" from="DB" to="BA"/>
    <trip id="99" type="passenger" depart="407.41" from="EB" to="BE"/>
    <trip id="100" type="passenger" depart="411.52" from="EB" to="BE"/>
    <trip id="101" type="passenger" depart="415.64" from="EB" to="BA"/>
    <trip id="102" type="passenger" depart="419.75" from="CB" to="BA"/>
    <trip id="103" type="passenger" depart="423.87" from="CB" to="BA"/>
    <trip id="104" type="passenger" depart="427.98" from="CB" to="EB"/>
    <trip id="105" type="passenger" depart="432.10" from="BC" to="BE"/>
    <trip id="106" type="passenger" depart="436.21" from="CB" to="BC"/>
    <trip id="107" type="passenger" depart="440.33" from="EB" to="EB"/>
    <trip id="108" type="passenger" depart="444.44" from="DB" to="BE"/>
    <trip id="109" type="passenger" depart="448.56" from="AB" to="BC"/>
    <trip id="110" type="passenger" depart="452.67" from="EB" to="BD"/>
    <trip id="111" type="passenger" depart="456.79" from="CB" to="BE"/>
    <trip id="112" type="passenger" depart="460.90" from="AB" to="BD"/>
    <trip id="113" type="passenger" depart="465.02" from="CB" to="BE"/>
    <trip id="114" type="passenger" depart="469.13" from="AB" to="DB"/>
    <trip id="115" type="passenger" depart="473.25" from="AB" to="BA"/>
    <trip id="116" type="passenger" depart="477.36" from="DB" to="BD"/>
    <trip id="117" type="passenger" depart="481.48" from="BA" to="BA"/>
    <trip id="118" type="passenger" depart="485.59" from="EB" to="BA"/>
    <trip id="119" type="passenger" depart="489.71" from="DB" to="BD"/>
    <trip id="120" type="passenger" depart="493.82" from="CB" to="BD"/>
    <trip id="121" type="passenger" depart="497.94" from="CB" to="CB"/>
    <trip id="122" type="passenger" depart="502.06" from="AB" to="BE"/>
    <trip id="123" type="passenger" depart="506.17" from="BA" to="BC"/>
    <trip id="124" type="passenger" depart="510.29" from="DB" to="BC"/>
    <trip id="125" type="passenger" depart="514.40" from="BE" to="BE"/>
    <trip id="126" type="passenger" depart="518.52" from="AB" to="BC"/>
    <trip id="127" type="passenger" depart="522.63" from="EB" to="EB"/>
    <trip id="128" type="passenger" depart="526.75" from="AB" to="BA"/>
    <trip id="129" type="passenger" depart="530.86" from="BC" to="CB"/>
    <trip id="130" type="passenger" depart="534.98" from="EB" to="BE"/>
    <trip id="131" type="passenger" depart="539.09" from="CB" to="BA"/>
    <trip id="132" type="passenger" depart="543.21" from="EB" to="BD"/>
    <trip id="133" type="passenger" depart="547.32" from="DB" to="EB"/>
    <trip id="134" type="passenger" depart="551.44" from="DB" to="AB"/>
    <trip id="135" type="passenger" depart="555.55" from="EB" to="BC"/>
    <trip id="136" type="passenger" depart="559.67" from="DB" to="CB"/>
    <trip id="137" type="passenger" depart="563.78" from="AB" to="BA"/>
    <trip id="138" type="passenger" depart="567.90" from="AB" to="BD"/>
    <trip id="139" type="passenger" depart="572.01" from="BC" to="BD"/>
    <trip id="140" type="passenger" depart="576.13" from="DB" to="BA"/>
    <trip id="141" type="passenger" depart="580.24" from="DB" to="BC"/>
    <trip id="142" type="passenger" depart="584.36" from="CB" to="BE"/>
    <trip id="143" type="passenger" depart="588.47" from="EB" to="BA"/>
    <trip id="144" type="passenger" depart="592.59" from="CB" to="BC"/>
    <trip id="145" type="passenger" depart="596.70" from="AB" to="BE"/>
    <trip id="146" type="passenger" depart="600.82" from="DB" to="BC"/>
    <trip id="147" type="passenger" depart="604.94" from="DB" to="BD"/>
    <trip id="148" type="passenger" depart="609.05" from="CB" to="AB"/>
    <trip id="149" type="passenger" depart="613.17" from="AB" to="BE"/>
    <trip id="150" type="passenger" depart="617.28" from="EB" to="BD"/>
    <trip id="151" type="passenger" depart="621.40" from="EB" to="BD"/>
    <trip id="152" type="passenger" depart="625.51" from="AB" to="BA"/>
    <trip id="153" type="passenger" depart="629.63" from="BE" to="BE"/>
    <trip id="154" type="passenger" depart="633.74" from="EB" to="BE"/>
    <trip id="155" type="passenger" depart="637.86" from="EB" to="BA"/>
    <trip id="156" type="passenger" depart="641.97" from="BA" to="BA"/>
    <trip id="157" type="passenger" depart="646.09" from="EB" to="BE"/>
    <trip id="158" type="passenger" depart="650.20" from="CB" to="BD"/>
    <trip id="159" type="passenger" depart="654.32" from="AB" to="BE"/>
    <trip id="160" type="passenger" depart="658.43" from="EB" to="DB"/>
    <trip id="161" type="passenger" depart="662.55" from="EB" to="BE"/>
    <trip id="162" type="passenger" depart="666.66" from="AB" to="BE"/>
    <trip id="163" type="passenger" depart="670.78" from="CB" to="BE"/>
    <trip id="164" type="passenger" depart="674.89" from="EB" to="BE"/>
    <trip id="165" type="passenger" depart="679.01" from="EB" to="BC"/>
    <trip id="166" type="passenger" depart="683.12" from="EB" to="BA"/>
    <trip id="167" type="passenger" depart="687.24" from="EB" to="BE"/>
    <trip id="168" type="passenger" depart="691.35" from="AB" to="BE"/>
    <trip id="169" type="passenger" depart="695.47" from="CB" to="BC"/>
    <trip id="170" type="passenger" depart="699.59" from="EB" to="BA"/>
    <trip id="171" type="passenger" depart="703.70" from="AB" to="BA"/>
    <trip id="172" type="passenger" depart="707.82" from="CB" to="BE"/>
    <trip id="173" type="passenger" depart="711.93" from="EB" to="BC"/>
    <trip id="174" type="passenger" depart="716.05" from="DB" to="BC"/>
    <trip id="175" type="passenger" depart="720.16" from="EB" to="BD"/>
    <trip id="176" type="passenger" depart="724.28" from="EB" to="BA"/>
    <trip id="177" type="passenger" depart="728.39" from="EB" to="BA"/>
    <trip id="178" type="passenger" depart="732.51" from="EB" to="BC"/>
    <trip id="179" type="passenger" depart="736.62" from="AB" to="BC"/>
    <trip id="180" type="passenger" depart="740.74" from="DB" to="BC"/>
    <trip id="181" type="passenger" depart="744.85" from="DB" to="BD"/>
    <trip id="182" type="passenger" depart="748.97" from="CB" to="BD"/>
    <trip id="183" type="passenger" depart="753.08" from="BC" to="BE"/>
    <trip id="184" type="passenger" depart="757.20" from="AB" to="BE"/>
    <trip id="185" type="passenger" depart="761.31" from="CB" to="BE"/>
    <trip id="186" type="passenger" depart="765.43" from="DB" to="BD"/>
    <trip id="187" type="passenger" depart="769.54" from="CB" to="BA"/>
    <trip id="188" type="passenger" depart="773.66" from="DB" to="BC"/>
    <trip id="189" type="passenger" depart="777.77" from="BE" to="BE"/>
    <trip id="190" type="passenger" depart="781.89" from="DB" to="BC"/>
    <trip id="191" type="passenger" depart="786.00" from="BE" to="BC"/>
    <trip id="192" type="passenger" depart="790.12" from="CB" to="BC"/>
    <trip id="193" type="passenger" depart="794.23" from="AB" to="BC"/>
    <trip id="194" type="passenger" depart="798.35" from="EB" to="BD"/>
    <trip id="195" type="passenger" depart="802.47" from="EB" to="BD"/>
    <trip id="196" type="passenger" depart="806.58" from="BE" to="BD"/>
    <trip id="197" type="passenger" depart="810.70" from="AB" to="BC"/>
    <trip id="198" type="passenger" depart="814.81" from="CB" to="BD"/>
    <trip id="199" type="passenger" depart="818.93" from="DB" to="BC"/>
    <trip id="200" type="passenger" depart="823.04" from="CB" to="BA"/>
    <trip id="201" type="passenger" depart="827.16" from="CB" to="BE"/>
    <trip id="202" type="passenger" depart="831.27" from="EB" to="BA"/>
    <trip id="203" type="passenger" depart="835.39" from="AB" to="BD"/>
    <trip id="204" type="passenger" depart="839.50" from="DB" to="BC"/>
    <trip id="205" type="passenger" depart="843.62" from="EB" to="BE"/>
    <trip id="206" type="passenger" depart="847.73" from="DB" to="BA"/>
    <trip id="207" type="passenger" depart="851.85" from="AB" to="BA"/>
    <trip id="208" type="passenger" depart="855.96" from="BA" to="BC"/>
    <trip id="209" type="passenger" depart="860.08" from="EB" to="BA"/>
    <trip id="210" type="passenger" depart="864.19" from="CB" to="BD"/>
    <trip id="211" type="passenger" depart="868.31" from="AB" to="BD"/>
    <trip id="212" type="passenger" depart="872.42" from="CB" to="BA"/>
    <trip id="213" type="passenger" depart="876.54" from="DB" to="AB"/>
    <trip id="214" type="passenger" depart="880.65" from="DB" to="BE"/>
    <trip id="215" type="passenger" depart="884.77" from="AB" to="BC"/>
    <trip id="216" type="passenger" depart="888.88" from="AB" to="DB"/>
    <trip id="217" type="passenger" depart="893.00" from="CB" to="BA"/>
    <trip id="218" type="passenger" depart="897.12" from="BA" to="BE"/>
    <trip id="219" type="passenger" depart="901.23" from="CB" to="BE"/>
    <trip id="220" type="passenger" depart="905.35" from="DB" to="EB"/>
    <trip id="221" type="passenger" depart="909.46" from="DB" to="CB"/>
    <trip id="222" type="passenger" depart="913.58" from="EB" to="BD"/>
    <trip id="223" type="passenger" depart="917.69" from="DB" to="BD"/>
    <trip id="224" type="passenger" depart="921.81" from="EB" to="BD"/>
    <trip id="225" type="passenger" depart="925.92" from="EB" to="BE"/>
    <trip id="226" type="passenger" depart="930.04" from="CB" to="BC"/>
    <trip id="227" type="passenger" depart="934.15" from="BA" to="BD"/>
    <trip id="228" type="passenger" depart="938.27" from="DB" to="BD"/>
    <trip id="229" type="passenger" depart="942.38" from="DB" to="BC"/>
    <trip id="230" type="passenger" depart="946.50" from="AB" to="BC"/>
    <trip id="231" type="passenger" depart="950.61" from="BC" to="BC"/>
    <trip id="232" type="passenger" depart="954.73" from="CB" to="BA"/>
    <trip id="233" type="passenger" depart="958.84" from="BA" to="BD"/>
    <trip id="234" type="passenger" depart="962.96" from="DB" to="BA"/>
    <trip id="235" type="passenger" depart="967.07" from="CB" to="BD"/>
    <trip id="236" type="passenger" depart="971.19" from="CB" to="BA"/>
    <trip id="237" type="passenger" depart="975.30" from="CB" to="BE"/>
    <trip id="238" type="passenger" depart="979.42" from="DB" to="BD"/>
    <trip id="239" type="passenger" depart="983.53" from="EB" to="BE"/>
    <trip id="240" type="passenger" depart="987.65" from="CB" to="AB"/>
    <trip id="241" type="passenger" depart="991.76" from="CB" to="BE"/>
    <trip id="242" type="passenger" depart="995.88" from="EB" to="CB"/>
    <trip id="243" type="passenger" depart="1000.00" from="CB" to="BE"/>
    <trip id="244" type="passenger" depart="1004.11" from="DB" to="BD"/>
    <trip id="245" type="passenger" depart="1008.23" from="AB" to="BA"/>
    <trip id="246" type="passenger" depart="1012.34" from="CB" to="BA"/>
    <trip id="247" type="passenger" depart="1016.46" from="CB" to="BD"/>
    <trip id="248" type="passenger" depart="1020.57" from="CB" to="BA"/>
    <trip id="249" type="passenger" depart="1024.69" from="CB" to="BA"/>
    <trip id="250" type="passenger" depart="1028.80" from="DB" to="BA"/>
    <trip id="251" type="passenger" depart="1032.92" from="CB" to="BD"/>
    <trip id="252" type="passenger" depart="1037.03" from="AB" to="BD"/>
    <trip id="253" type="passenger" depart="1041.15" from="AB" to="BC"/>
    <trip id="254" type="passenger" depart="1045.26" from="AB" to="BC"/>
    <trip id="255" type="passenger" depart="1049.38" from="AB" to="BC"/>
    <trip id="256" type="passenger" depart="1053.49" from="DB" to="BC"/>
    <trip id="257" type="passenger" depart="1057.61" from="DB" to="BE"/>
    <trip id="258" type="passenger" depart="1061.72" from="BC" to="BA"/>
    <trip id="259" type="passenger" depart="1065.84" from="AB" to="BD"/>
    <trip id="260" type="passenger" depart="1069.95" from="EB" to="BC"/>
    <trip id="261" type="passenger" depart="1074.07" from="DB" to="BE"/>
    <trip id="262" type="passenger" depart="1078.18" from="DB" to="BE"/>
    <trip id="263" type="passenger" depart="1082.30" from="EB" to="BA"/>
    <trip id="264" type="passenger" depart="1086.41" from="AB" to="BA"/>
    <trip id="265" type="passenger" depart="1090.53" from="AB" to="BD"/>
    <trip id="266" type="passenger" depart="1094.64" from="DB" to="BA"/>
    <trip id="267" type="passenger" depart="1098.76" from="DB" to="BE"/>
    <trip id="268" type="passenger" depart="1102.88" from="AB" to="BD"/>
    <trip id="269" type="passenger" depart="1106.99" from="DB" to="BA"/>
    <trip id="270" type="passenger" depart="1111.11" from="EB" to="DB"/>
    <trip id="271" type="passenger" depart="1115.22" from="AB" to="BA"/>
    <trip id="272" type="passenger" depart="1119.34" from="BE" to="BD"/>
    <trip id="273" type="passenger" depart="1123.45" from="EB" to="BC"/>
    <trip id="274" type="passenger" depart="1127.57" from="DB" to="BA"/>
    <trip id="275" type="passenger" depart="1131.68" from="DB" to="BD"/>
    <trip id="276" type="passenger" depart="1135.80" from="AB" to="BE"/>
    <trip id="277" type="passenger" depart="1139.91" from="EB" to="BD"/>
    <trip id="278" type="passenger" depart="1144.03" from="AB" to="EB"/>
    <trip id="279" type="passenger" depart="1148.14" from="EB" to="BC"/>
    <trip id="280" type="passenger" depart="1152.26" from="CB" to="BC"/>
    <trip id="281" type="passenger" depart="1156.37" from="CB" to="BC"/>
    <trip id="282" type="passenger" depart="1160.49" from="EB" to="BE"/>
    <trip id="283" type="passenger" depart="1164.60" from="AB" to="DB"/>
    <trip id="284" type="passenger" depart="1168.72" from="DB" to="BE"/>
    <trip id="285" type="passenger" depart="1172.83" from="DB" to="BC"/>
    <trip id="286" type="passenger" depart="1176.95" from="DB" to="DB"/>
    <trip id="287" type="passenger" depart="1181.06" from="BC" to="BE"/>
    <trip id="288" type="passenger" depart="1185.18" from="CB" to="BD"/>
    <trip id="289" type="passenger" depart="1189.29" from="CB" to="BE"/>
    <trip id="290" type="passenger" depart="1193.41" from="BC" to="BE"/>
    <trip id="291" type="passenger" depart="1197.53" from="EB" to="BA"/>
    <trip id="292" type="passenger" depart="1201.64" from="EB" to="BA"/>
    <trip id="293" type="passenger" depart="1205.76" from="CB" to="BD"/>
    <trip id="294" type="passenger" depart="1209.87" from="CB" to="BA"/>
    <trip id="295" type="passenger" depart="1213.99" from="EB" to="BA"/>
    <trip id="296" type="passenger" depart="1218.10" from="AB" to="BE"/>
    <trip id="297" type="passenger" depart="1222.22" from="CB" to="BE"/>
    <trip id="298" type="passenger" depart="1226.33" from="DB" to="BC"/>
    <trip id="299" type="passenger" depart="1230.45" from="AB" to="CB"/>
    <trip id="300" type="passenger" depart="1234.56" from="AB" to="BE"/>
    <trip id="301" type="passenger" depart="1238.68" from="CB" to="BE"/>
    <trip id="302" type="passenger" depart="1242.79" from="DB" to="BD"/>
    <trip id="303" type="passenger" depart="1246.91" from="CB" to="BE"/>
    <trip id="304" type="passenger" depart="1251.02" from="AB" to="BA"/>
    <trip id="305" type="passenger" depart="1255.14" from="DB" to="BC"/>
    <trip id="306" type="passenger" depart="1259.25" from="DB" to="BC"/>
    <trip id="307" type="passenger" depart="1263.37" from="CB" to="BC"/>
    <trip id="308" type="passenger" depart="1267.48" from="DB" to="BC"/>
    <trip id="309" type="passenger" depart="1271.60" from="DB" to="BC"/>
    <trip id="310" type="passenger" depart="1275.71" from="BC" to="BA"/>
    <trip id="311" type="passenger" depart="1279.83" from="AB" to="BA"/>
    <trip id="312" type="passenger" depart="1283.94" from="CB" to="BE"/>
    <trip id="313" type="passenger" depart="1288.06" from="AB" to="BA"/>
    <trip id="314" type="passenger" depart="1292.17" from="CB" to="BE"/>
    <trip id="315" type="passenger" depart="1296.29" from="EB" to="BD"/>
    <trip id="316" type="passenger" depart="1300.41" from="BD" to="BA"/>
    <trip id="317" type="passenger" depart="1304.52" from="AB" to="BA"/>
    <trip id="318" type="passenger" depart="1308.64" from="AB" to="AB"/>
    <trip id="319" type="passenger" depart="1312.75" from="CB" to="BC"/>
    <trip id="320" type="passenger" depart="1316.87" from="EB" to="BD"/>
    <trip id="321" type="passenger" depart="1320.98" from="DB" to="BA"/>
    <trip id="322" type="passenger" depart="1325.10" from="EB" to="BD"/>
    <trip id="323" type="passenger" depart="1329.21" from="EB" to="BD"/>
    <trip id="324" type="passenger" depart="1333.33" from="CB" to="BC"/>
    <trip id="325" type="passenger" depart="1337.44" from="AB" to="BA"/>
    <trip id="326" type="passenger" depart="1341.56" from="EB" to="BD"/>
    <trip id="327" type="passenger" depart="1345.67" from="EB" to="BC"/>
    <trip id="328" type="passenger" depart="1349.79" from="AB" to="BD"/>
    <trip id="329" type="passenger" depart="1353.90" from="AB" to="BA"/>
    <trip id="330" type="passenger" depart="1358.02" from="DB" to="BC"/>
    <trip id="331" type="passenger" depart="1362.13" from="EB" to="BA"/>
    <trip id="332" type="passenger" depart="1366.25" from="DB" to="BD"/>
    <trip id="333" type="passenger" depart="1370.36" from="EB" to="BA"/>
    <trip id="334" type="passenger" depart="1374.48" from="CB" to="BC"/>
    <trip id="335" type="passenger" depart="1378.59" from="CB" to="BE"/>
    <trip id="336" type="passenger" depart="1382.71" from="EB" to="BC"/>
    <trip id="337" type="passenger" depart="1386.82" from="DB" to="BD"/>
    <trip id="338" type="passenger" depart="1390.94" from="DB" to="CB"/>
    <trip id="339" type="passenger" depart="1395.06" from="AB" to="BA"/>
    <trip id="340" type="passenger" depart="1399.17" from="DB" to="BA"/>
    <trip id="341" type="passenger" depart="1403.29" from="AB" to="BA"/>
    <trip id="342" type="passenger" depart="1407.40" from="AB" to="BC"/>
    <trip id="343" type="passenger" depart="1411.52" from="DB" to="BC"/>
    <trip id="344" type="passenger" depart="1415.63" from="BA" to="BE"/>
    <trip id="345" type="passenger" depart="1419.75" from="DB" to="BC"/>
    <trip id="346" type="passenger" depart="1423.86" from="DB" to="BE"/>
    <trip id="347" type="passenger" depart="1427.98" from="EB" to="BD"/>
    <trip id="348" type="passenger" depart="1432.09" from="DB" to="CB"/>
    <trip id="349" type="passenger" depart="1436.21" from="CB" to="BD"/>
    <trip id="350" type="passenger" depart="1440.32" from="DB" to="BE"/>
    <trip id="351" type="passenger" depart="1444.44" from="EB" to="BA"/>
    <trip id="352" type="passenger" depart="1448.55" from="AB" to="BC"/>
    <trip id="353" type="passenger" depart="1452.67" from="DB" to="BD"/>
    <trip id="354" type="passenger" depart="1456.78" from="BD" to="BA"/>
    <trip id="355" type="passenger" depart="1460.90" from="DB" to="BD"/>
    <trip id="356" type="passenger" depart="1465.01" from="EB" to="BD"/>
    <trip id="357" type="passenger" depart="1469.13" from="CB" to="BA"/>
    <trip id="358" type="passenger" depart="1473.24" from="AB" to="BC"/>
    <trip id="359" type="passenger" depart="1477.36" from="CB" to="BC"/>
    <trip id="360" type="passenger" depart="1481.47" from="AB" to="DB"/>
    <trip id="361" type="passenger" depart="1485.59" from="EB" to="BD"/>
    <trip id="362" type="passenger" depart="1489.70" from="EB" to="EB"/>
    <trip id="363" type="passenger" depart="1493.82" from="DB" to="BC"/>
    <trip id="364" type="passenger" depart="1497.94" from="AB" to="BE"/>
    <trip id="365" type="passenger" depart="1502.05" from="CB" to="BD"/>
    <trip id="366" type="passenger" depart="1506.17" from="EB" to="BA"/>
    <trip id="367" type="passenger" depart="1510.28" from="DB" to="BD"/>
    <trip id="368" type="passenger" depart="1514.40" from="CB" to="BA"/>
    <trip id="369" type="passenger" depart="1518.51" from="CB" to="BC"/>
    <trip id="370" type="passenger" depart="1522.63" from="DB" to="BE"/>
    <trip id="371" type="passenger" depart="1526.74" from="CB" to="BD"/>
    <trip id="372" type="passenger" depart="1530.86" from="BD" to="CB"/>
    <trip id="373" type="passenger" depart="1534.97" from="EB" to="BD"/>
    <trip id="374" type="passenger" depart="1539.09" from="CB" to="BC"/>
    <trip id="375" type="passenger" depart="1543.20" from="CB" to="DB"/>
    <trip id="376" type="passenger" depart="1547.32" from="CB" to="BD"/>
    <trip id="377" type="passenger" depart="1551.43" from="EB" to="BD"/>
    <trip id="378" type="passenger" depart="1555.55" from="CB" to="BC"/>
    <trip id="379" type="passenger" depart="1559.66" from="AB" to="BC"/>
    <trip id="380" type="passenger" depart="1563.78" from="DB" to="BD"/>
    <trip id="381" type="passenger" depart="1567.89" from="DB" to="BA"/>
    <trip id="382" type="passenger" depart="1572.01" from="DB" to="BE"/>
    <trip id="383" type="passenger" depart="1576.12" from="CB" to="BD"/>
    <trip id="384" type="passenger" depart="1580.24" from="AB" to="DB"/>
    <trip id="385" type="passenger" depart="1584.35" from="DB" to="BA"/>
    <trip id="386" type="passenger" depart="1588.47" from="AB" to="BD"/>
    <trip id="387" type="passenger" depart="1592.59" from="DB" to="BA"/>
    <trip id="388" type="passenger" depart="1596.70" from="EB" to="BE"/>
    <trip id="389" type="passenger" depart="1600.82" from="CB" to="BA"/>
    <trip id="390" type="passenger" depart="1604.93" from="EB" to="BD"/>
    <trip id="391" type="passenger" depart="1609.05" from="DB" to="BD"/>
    <trip id="392" type="passenger" depart="1613.16" from="BD" to="BE"/>
    <trip id="393" type="passenger" depart="1617.28" from="EB" to="BA"/>
    <trip id="394" type="passenger" depart="1621.39" from="DB" to="BC"/>