<?xml version="1.0" encoding="UTF-8"?>

<!-- generated on 2025-03-30 11:38:49.752198 by randomTrips.py v1_22_0+0002-63e50f52594
<configuration>
    <net-file value="traffic_dataset\scenario_7\network.net.xml"/>
    <output-trip-file value="traffic_dataset\scenario_7\routes.rou.xml"/>
    <vehicle-class value="passenger"/>
    <fringe-factor value="10"/>
    <allow-fringe value="True"/>
    <validate value="True"/>
    <period value="2.8411848880828603"/>
</configuration>
-->

<!-- generated on 2025-03-30 11:38:49 by Eclipse SUMO duarouter Version 1.22.0
<duarouterConfiguration xmlns:xsi="http://www.w3.org/2001/XMLSchema-instance" xsi:noNamespaceSchemaLocation="http://sumo.dlr.de/xsd/duarouterConfiguration.xsd">

    <input>
        <net-file value="traffic_dataset\scenario_7\network.net.xml"/>
        <route-files value="traffic_dataset\scenario_7\routes.rou.xml"/>
    </input>

    <output>
        <output-file value="traffic_dataset\scenario_7\routes.rou.xml.tmp"/>
        <alternatives-output value="NUL"/>
        <write-trips value="true"/>
    </output>

    <time>
        <begin value="0"/>
        <end value="3600.0"/>
    </time>

    <report>
        <no-warnings value="true"/>
        <ignore-errors value="true"/>
        <no-step-log value="true"/>
    </report>

</duarouterConfiguration>
-->

<routes xmlns:xsi="http://www.w3.org/2001/XMLSchema-instance" xsi:noNamespaceSchemaLocation="http://sumo.dlr.de/xsd/routes_file.xsd">
    <vType id="passenger" vClass="passenger"/>
    <trip id="0" type="passenger" depart="0.00" from="CB" to="AB"/>
    <trip id="1" type="passenger" depart="2.84" from="AB" to="BA"/>
    <trip id="2" type="passenger" depart="5.68" from="DB" to="BD"/>
    <trip id="3" type="passenger" depart="8.52" from="DB" to="BA"/>
    <trip id="4" type="passenger" depart="11.36" from="CB" to="AB"/>
    <trip id="5" type="passenger" depart="14.21" from="AB" to="BC"/>
    <trip id="6" type="passenger" depart="17.05" from="AB" to="BA"/>
    <trip id="7" type="passenger" depart="19.89" from="CB" to="BC"/>
    <trip id="8" type="passenger" depart="22.73" from="AB" to="BC"/>
    <trip id="9" type="passenger" depart="25.57" from="DB" to="AB"/>
    <trip id="10" type="passenger" depart="28.41" from="DB" to="BD"/>
    <trip id="11" type="passenger" depart="31.25" from="BC" to="BA"/>
    <trip id="12" type="passenger" depart="34.09" from="DB" to="BC"/>
    <trip id="13" type="passenger" depart="36.94" from="AB" to="BA"/>
    <trip id="14" type="passenger" depart="39.78" from="DB" to="BC"/>
    <trip id="15" type="passenger" depart="42.62" from="DB" to="BD"/>
    <trip id="16" type="passenger" depart="45.46" from="CB" to="DB"/>
    <trip id="17" type="passenger" depart="48.30" from="BD" to="BC"/>
    <trip id="18" type="passenger" depart="51.14" from="DB" to="BC"/>
    <trip id="19" type="passenger" depart="53.98" from="DB" to="BC"/>
    <trip id="20" type="passenger" depart="56.82" from="DB" to="BA"/>
    <trip id="21" type="passenger" depart="59.66" from="AB" to="BA"/>
    <trip id="22" type="passenger" depart="62.51" from="AB" to="BA"/>
    <trip id="23" type="passenger" depart="65.35" from="AB" to="BA"/>
    <trip id="24" type="passenger" depart="68.19" from="CB" to="BC"/>
    <trip id="25" type="passenger" depart="71.03" from="BD" to="BA"/>
    <trip id="26" type="passenger" depart="73.87" from="AB" to="BD"/>
    <trip id="27" type="passenger" depart="76.71" from="CB" to="BC"/>
    <trip id="28" type="passenger" depart="79.55" from="AB" to="BD"/>
    <trip id="29" type="passenger" depart="82.39" from="AB" to="BC"/>
    <trip id="30" type="passenger" depart="85.24" from="DB" to="BD"/>
    <trip id="31" type="passenger" depart="88.08" from="CB" to="BD"/>
    <trip id="32" type="passenger" depart="90.92" from="DB" to="BD"/>
    <trip id="33" type="passenger" depart="93.76" from="AB" to="BA"/>
    <trip id="34" type="passenger" depart="96.60" from="BA" to="BA"/>
    <trip id="35" type="passenger" depart="99.44" from="AB" to="CB"/>
    <trip id="36" type="passenger" depart="102.28" from="DB" to="BA"/>
    <trip id="37" type="passenger" depart="105.12" from="CB" to="BC"/>
    <trip id="38" type="passenger" depart="107.97" from="DB" to="BC"/>
    <trip id="39" type="passenger" depart="110.81" from="AB" to="BA"/>
    <trip id="40" type="passenger" depart="113.65" from="CB" to="BA"/>
    <trip id="41" type="passenger" depart="116.49" from="CB" to="BD"/>
    <trip id="42" type="passenger" depart="119.33" from="CB" to="BA"/>
    <trip id="43" type="passenger" depart="122.17" from="DB" to="BC"/>
    <trip id="44" type="passenger" depart="125.01" from="AB" to="BA"/>
    <trip id="45" type="passenger" depart="127.85" from="AB" to="BC"/>
    <trip id="46" type="passenger" depart="130.69" from="DB" to="BC"/>
    <trip id="47" type="passenger" depart="133.54" from="AB" to="BC"/>
    <trip id="48" type="passenger" depart="136.38" from="DB" to="BC"/>
    <trip id="49" type="passenger" depart="139.22" from="DB" to="BD"/>
    <trip id="50" type="passenger" depart="142.06" from="AB" to="BD"/>
    <trip id="51" type="passenger" depart="144.90" from="CB" to="BC"/>
    <trip id="52" type="passenger" depart="147.74" from="AB" to="BD"/>
    <trip id="53" type="passenger" depart="150.58" from="AB" to="BC"/>
    <trip id="54" type="passenger" depart="153.42" from="CB" to="CB"/>
    <trip id="55" type="passenger" depart="156.27" from="DB" to="BA"/>
    <trip id="56" type="passenger" depart="159.11" from="CB" to="BA"/>
    <trip id="57" type="passenger" depart="161.95" from="DB" to="BD"/>
    <trip id="58" type="passenger" depart="164.79" from="AB" to="BD"/>
    <trip id="59" type="passenger" depart="167.63" from="CB" to="BA"/>
    <trip id="60" type="passenger" depart="170.47" from="DB" to="BC"/>
    <trip id="61" type="passenger" depart="173.31" from="DB" to="BC"/>
    <trip id="62" type="passenger" depart="176.15" from="AB" to="BA"/>
    <trip id="63" type="passenger" depart="178.99" from="AB" to="BD"/>
    <trip id="64" type="passenger" depart="181.84" from="DB" to="BD"/>
    <trip id="65" type="passenger" depart="184.68" from="BA" to="BA"/>
    <trip id="66" type="passenger" depart="187.52" from="DB" to="CB"/>
    <trip id="67" type="passenger" depart="190.36" from="AB" to="BC"/>
    <trip id="68" type="passenger" depart="193.20" from="AB" to="BD"/>
    <trip id="69" type="passenger" depart="196.04" from="DB" to="BA"/>
    <trip id="70" type="passenger" depart="198.88" from="CB" to="BC"/>
    <trip id="71" type="passenger" depart="201.72" from="AB" to="BD"/>
    <trip id="72" type="passenger" depart="204.57" from="CB" to="BA"/>
    <trip id="73" type="passenger" depart="207.41" from="CB" to="BD"/>
    <trip id="74" type="passenger" depart="210.25" from="AB" to="BA"/>
    <trip id="75" type="passenger" depart="213.09" from="DB" to="BD"/>
    <trip id="76" type="passenger" depart="215.93" from="CB" to="BC"/>
    <trip id="77" type="passenger" depart="218.77" from="AB" to="BA"/>
    <trip id="78" type="passenger" depart="221.61" from="BC" to="BC"/>
    <trip id="79" type="passenger" depart="224.45" from="AB" to="BA"/>
    <trip id="80" type="passenger" depart="227.29" from="AB" to="BC"/>
    <trip id="81" type="passenger" depart="230.14" from="AB" to="BD"/>
    <trip id="82" type="passenger" depart="232.98" from="DB" to="BA"/>
    <trip id="83" type="passenger" depart="235.82" from="AB" to="BD"/>
    <trip id="84" type="passenger" depart="238.66" from="AB" to="BA"/>
    <trip id="85" type="passenger" depart="241.50" from="DB" to="BC"/>
    <trip id="86" type="passenger" depart="244.34" from="CB" to="BD"/>
    <trip id="87" type="passenger" depart="247.18" from="DB" to="BA"/>
    <trip id="88" type="passenger" depart="250.02" from="AB" to="BC"/>
    <trip id="89" type="passenger" depart="252.87" from="CB" to="BC"/>
    <trip id="90" type="passenger" depart="255.71" from="DB" to="BD"/>
    <trip id="91" type="passenger" depart="258.55" from="DB" to="BA"/>
    <trip id="92" type="passenger" depart="261.39" from="CB" to="BC"/>
    <trip id="93" type="passenger" depart="264.23" from="DB" to="BA"/>
    <trip id="94" type="passenger" depart="267.07" from="AB" to="BC"/>
    <trip id="95" type="passenger" depart="269.91" from="CB" to="BA"/>
    <trip id="96" type="passenger" depart="272.75" from="AB" to="BD"/>
    <trip id="97" type="passenger" depart="275.59" from="CB" to="BD"/>
    <trip id="98" type="passenger" depart="278.44" from="CB" to="BA"/>
    <trip id="99" type="passenger" depart="281.28" from="DB" to="BD"/>
    <trip id="100" type="passenger" depart="284.12" from="DB" to="BD"/>
    <trip id="101" type="passenger" depart="286.96" from="DB" to="BA"/>
    <trip id="102" type="passenger" depart="289.80" from="CB" to="BA"/>
    <trip id="103" type="passenger" depart="292.64" from="CB" to="BA"/>
    <trip id="104" type="passenger" depart="295.48" from="BD" to="DB"/>
    <trip id="105" type="passenger" depart="298.32" from="AB" to="BD"/>
    <trip id="106" type="passenger" depart="301.17" from="CB" to="BC"/>
    <trip id="107" type="passenger" depart="304.01" from="DB" to="DB"/>
    <trip id="108" type="passenger" depart="306.85" from="CB" to="BD"/>
    <trip id="109" type="passenger" depart="309.69" from="AB" to="BA"/>
    <trip id="110" type="passenger" depart="312.53" from="DB" to="BC"/>
    <trip id="111" type="passenger" depart="315.37" from="CB" to="BD"/>
    <trip id="112" type="passenger" depart="318.21" from="AB" to="BC"/>
    <trip id="113" type="passenger" depart="321.05" from="CB" to="BD"/>
    <trip id="114" type="passenger" depart="323.90" from="AB" to="CB"/>
    <trip id="115" type="passenger" depart="326.74" from="AB" to="BA"/>
    <trip id="116" type="passenger" depart="329.58" from="CB" to="BD"/>
    <trip id="117" type="passenger" depart="332.42" from="AB" to="BA"/>
    <trip id="118" type="passenger" depart="335.26" from="DB" to="BA"/>
    <trip id="119" type="passenger" depart="338.10" from="CB" to="BC"/>
    <trip id="120" type="passenger" depart="340.94" from="CB" to="BC"/>
    <trip id="121" type="passenger" depart="343.78" from="CB" to="BD"/>
    <trip id="122" type="passenger" depart="346.62" from="AB" to="BD"/>
    <trip id="123" type="passenger" depart="349.47" from="AB" to="BC"/>
    <trip id="124" type="passenger" depart="352.31" from="CB" to="BA"/>
    <trip id="125" type="passenger" depart="355.15" from="BA" to="BD"/>
    <trip id="126" type="passenger" depart="357.99" from="AB" to="BC"/>
    <trip id="127" type="passenger" depart="360.83" from="DB" to="DB"/>
    <trip id="128" type="passenger" depart="363.67" from="AB" to="BA"/>
    <trip id="129" type="passenger" depart="366.51" from="AB" to="BD"/>
    <trip id="130" type="passenger" depart="369.35" from="DB" to="BD"/>
    <trip id="131" type="passenger" depart="372.20" from="BD" to="BA"/>
    <trip id="132" type="passenger" depart="375.04" from="DB" to="BD"/>
    <trip id="133" type="passenger" depart="377.88" from="CB" to="DB"/>
    <trip id="134" type="passenger" depart="380.72" from="CB" to="AB"/>
    <trip id="135" type="passenger" depart="383.56" from="DB" to="BA"/>
    <trip id="136" type="passenger" depart="386.40" from="CB" to="BD"/>
    <trip id="137" type="passenger" depart="389.24" from="AB" to="BA"/>
    <trip id="138" type="passenger" depart="392.08" from="AB" to="BC"/>
    <trip id="139" type="passenger" depart="394.92" from="AB" to="BC"/>
    <trip id="140" type="passenger" depart="397.77" from="DB" to="BA"/>
    <trip id="141" type="passenger" depart="400.61" from="CB" to="BA"/>
    <trip id="142" type="passenger" depart="403.45" from="CB" to="BD"/>
    <trip id="143" type="passenger" depart="406.29" from="DB" to="BA"/>
    <trip id="144" type="passenger" depart="409.13" from="CB" to="BA"/>
    <trip id="145" type="passenger" depart="411.97" from="AB" to="BD"/>
    <trip id="146" type="passenger" depart="414.81" from="CB" to="BA"/>
    <trip id="147" type="passenger" depart="417.65" from="DB" to="BC"/>
    <trip id="148" type="passenger" depart="420.50" from="CB" to="AB"/>
    <trip id="149" type="passenger" depart="423.34" from="AB" to="BD"/>
    <trip id="150" type="passenger" depart="426.18" from="DB" to="BC"/>
    <trip id="151" type="passenger" depart="429.02" from="DB" to="BC"/>
    <trip id="152" type="passenger" depart="431.86" from="AB" to="BA"/>
    <trip id="153" type="passenger" depart="434.70" from="BA" to="BD"/>
    <trip id="154" type="passenger" depart="437.54" from="DB" to="BD"/>
    <trip id="155" type="passenger" depart="440.38" from="DB" to="BA"/>
    <trip id="156" type="passenger" depart="443.22" from="AB" to="BA"/>
    <trip id="157" type="passenger" depart="446.07" from="DB" to="BD"/>
    <trip id="158" type="passenger" depart="448.91" from="CB" to="BC"/>
    <trip id="159" type="passenger" depart="451.75" from="AB" to="BD"/>
    <trip id="160" type="passenger" depart="454.59" from="DB" to="DB"/>
    <trip id="161" type="passenger" depart="457.43" from="DB" to="BD"/>
    <trip id="162" type="passenger" depart="460.27" from="AB" to="BD"/>
    <trip id="163" type="passenger" depart="463.11" from="BA" to="BD"/>
    <trip id="164" type="passenger" depart="465.95" from="DB" to="BD"/>
    <trip id="165" type="passenger" depart="468.80" from="DB" to="BA"/>
    <trip id="166" type="passenger" depart="471.64" from="DB" to="BA"/>
    <trip id="167" type="passenger" depart="474.48" from="DB" to="BD"/>
    <trip id="168" type="passenger" depart="477.32" from="AB" to="BD"/>
    <trip id="169" type="passenger" depart="480.16" from="CB" to="BA"/>
    <trip id="170" type="passenger" depart="483.00" from="DB" to="BA"/>
    <trip id="171" type="passenger" depart="485.84" from="AB" to="BA"/>
    <trip id="172" type="passenger" depart="488.68" from="BA" to="BD"/>
    <trip id="173" type="passenger" depart="491.52" from="DB" to="BA"/>
    <trip id="174" type="passenger" depart="494.37" from="CB" to="BC"/>
    <trip id="175" type="passenger" depart="497.21" from="DB" to="BC"/>
    <trip id="176" type="passenger" depart="500.05" from="DB" to="BA"/>
    <trip id="177" type="passenger" depart="502.89" from="DB" to="BA"/>
    <trip id="178" type="passenger" depart="505.73" from="DB" to="BA"/>
    <trip id="179" type="passenger" depart="508.57" from="AB" to="BC"/>
    <trip id="180" type="passenger" depart="511.41" from="DB" to="BA"/>
    <trip id="181" type="passenger" depart="514.25" from="CB" to="BC"/>
    <trip id="182" type="passenger" depart="517.10" from="BD" to="BC"/>
    <trip id="183" type="passenger" depart="519.94" from="AB" to="BD"/>
    <trip id="184" type="passenger" depart="522.78" from="AB" to="BD"/>
    <trip id="185" type="passenger" depart="525.62" from="CB" to="BD"/>
    <trip id="186" type="passenger" depart="528.46" from="DB" to="BD"/>
    <trip id="187" type="passenger" depart="531.30" from="BD" to="BA"/>
    <trip id="188" type="passenger" depart="534.14" from="CB" to="BA"/>
    <trip id="189" type="passenger" depart="536.98" from="BA" to="BD"/>
    <trip id="190" type="passenger" depart="539.83" from="DB" to="BA"/>
    <trip id="191" type="passenger" depart="542.67" from="BA" to="BC"/>
    <trip id="192" type="passenger" depart="545.51" from="CB" to="BA"/>
    <trip id="193" type="passenger" depart="548.35" from="AB" to="BC"/>
    <trip id="194" type="passenger" depart="551.19" from="DB" to="BD"/>
    <trip id="195" type="passenger" depart="554.03" from="DB" to="BC"/>
    <trip id="196" type="passenger" depart="556.87" from="AB" to="BC"/>
    <trip id="197" type="passenger" depart="559.71" from="AB" to="BA"/>
    <trip id="198" type="passenger" depart="562.55" from="CB" to="BC"/>
    <trip id="199" type="passenger" depart="565.40" from="CB" to="BC"/>
    <trip id="200" type="passenger" depart="568.24" from="CB" to="BA"/>
    <trip id="201" type="passenger" depart="571.08" from="CB" to="BD"/>
    <trip id="202" type="passenger" depart="573.92" from="DB" to="BA"/>
    <trip id="203" type="passenger" depart="576.76" from="AB" to="BC"/>
    <trip id="204" type="passenger" depart="579.60" from="CB" to="BC"/>
    <trip id="205" type="passenger" depart="582.44" from="DB" to="BD"/>
    <trip id="206" type="passenger" depart="585.28" from="CB" to="BA"/>
    <trip id="207" type="passenger" depart="588.13" from="AB" to="AB"/>
    <trip id="208" type="passenger" depart="590.97" from="AB" to="BC"/>
    <trip id="209" type="passenger" depart="593.81" from="DB" to="BA"/>
    <trip id="210" type="passenger" depart="596.65" from="CB" to="BC"/>
    <trip id="211" type="passenger" depart="599.49" from="AB" to="BD"/>
    <trip id="212" type="passenger" depart="602.33" from="CB" to="BA"/>
    <trip id="213" type="passenger" depart="605.17" from="CB" to="AB"/>
    <trip id="214" type="passenger" depart="608.01" from="DB" to="BD"/>
    <trip id="215" type="passenger" depart="610.85" from="AB" to="BC"/>
    <trip id="216" type="passenger" depart="613.70" from="AB" to="CB"/>
    <trip id="217" type="passenger" depart="616.54" from="CB" to="BA"/>
    <trip id="218" type="passenger" depart="619.38" from="AB" to="BD"/>
    <trip id="219" type="passenger" depart="622.22" from="CB" to="BD"/>
    <trip id="220" type="passenger" depart="625.06" from="CB" to="DB"/>
    <trip id="221" type="passenger" depart="627.90" from="CB" to="CB"/>
    <trip id="222" type="passenger" depart="630.74" from="DB" to="BC"/>
    <trip id="223" type="passenger" depart="633.58" from="DB" to="BC"/>
    <trip id="224" type="passenger" depart="636.43" from="DB" to="BC"/>
    <trip id="225" type="passenger" depart="639.27" from="DB" to="BD"/>
    <trip id="226" type="passenger" depart="642.11" from="CB" to="BA"/>
    <trip id="227" type="passenger" depart="644.95" from="AB" to="BD"/>
    <trip id="228" type="passenger" depart="647.79" from="DB" to="BC"/>
    <trip id="229" type="passenger" depart="650.63" from="CB" to="BA"/>
    <trip id="230" type="passenger" depart="653.47" from="AB" to="BA"/>
    <trip id="231" type="passenger" depart="656.31" from="AB" to="BA"/>
    <trip id="232" type="passenger" depart="659.15" from="CB" to="BA"/>
    <trip id="233" type="passenger" depart="662.00" from="AB" to="BD"/>
    <trip id="234" type="passenger" depart="664.84" from="DB" to="BA"/>
    <trip id="235" type="passenger" depart="667.68" from="CB" to="BC"/>
    <trip id="236" type="passenger" depart="670.52" from="CB" to="BA"/>
    <trip id="237" type="passenger" depart="673.36" from="CB" to="BD"/>
    <trip id="238" type="passenger" depart="676.20" from="CB" to="BD"/>
    <trip id="239" type="passenger" depart="679.04" from="DB" to="BD"/>
    <trip id="240" type="passenger" depart="681.88" from="BD" to="AB"/>
    <trip id="241" type="passenger" depart="684.73" from="BC" to="BD"/>
    <trip id="242" type="passenger" depart="687.57" from="DB" to="CB"/>
    <trip id="243" type="passenger" depart="690.41" from="CB" to="BD"/>
    <trip id="244" type="passenger" depart="693.25" from="CB" to="BC"/>
    <trip id="245" type="passenger" depart="696.09" from="AB" to="BA"/>
    <trip id="246" type="passenger" depart="698.93" from="CB" to="AB"/>
    <trip id="247" type="passenger" depart="701.77" from="BC" to="BD"/>
    <trip id="248" type="passenger" depart="704.61" from="CB" to="BA"/>
    <trip id="249" type="passenger" depart="707.46" from="CB" to="BA"/>
    <trip id="250" type="passenger" depart="710.30" from="CB" to="AB"/>
    <trip id="251" type="passenger" depart="713.14" from="CB" to="BC"/>
    <trip id="252" type="passenger" depart="715.98" from="AB" to="BD"/>
    <trip id="253" type="passenger" depart="718.82" from="AB" to="BC"/>
    <trip id="254" type="passenger" depart="721.66" from="AB" to="BC"/>
    <trip id="255" type="passenger" depart="724.50" from="AB" to="BA"/>
    <trip id="256" type="passenger" depart="727.34" from="DB" to="BC"/>
    <trip id="257" type="passenger" depart="730.18" from="DB" to="BD"/>
    <trip id="258" type="passenger" depart="733.03" from="AB" to="BA"/>
    <trip id="259" type="passenger" depart="735.87" from="AB" to="BC"/>
    <trip id="260" type="passenger" depart="738.71" from="DB" to="BC"/>
    <trip id="261" type="passenger" depart="741.55" from="CB" to="BD"/>
    <trip id="262" type="passenger" depart="744.39" from="CB" to="BD"/>
    <trip id="263" type="passenger" depart="747.23" from="DB" to="BA"/>
    <trip id="264" type="passenger" depart="750.07" from="AB" to="BA"/>
    <trip id="265" type="passenger" depart="752.91" from="AB" to="BD"/>
    <trip id="266" type="passenger" depart="755.76" from="CB" to="BA"/>
    <trip id="267" type="passenger" depart="758.60" from="DB" to="BD"/>
    <trip id="268" type="passenger" depart="761.44" from="AB" to="BC"/>
    <trip id="269" type="passenger" depart="764.28" from="DB" to="BA"/>
    <trip id="270" type="passenger" depart="767.12" from="DB" to="CB"/>
    <trip id="271" type="passenger" depart="769.96" from="AB" to="AB"/>
    <trip id="272" type="passenger" depart="772.80" from="BA" to="BD"/>
    <trip id="273" type="passenger" depart="775.64" from="DB" to="BC"/>
    <trip id="274" type="passenger" depart="778.48" from="DB" to="BA"/>
    <trip id="275" type="passenger" depart="781.33" from="CB" to="BC"/>
    <trip id="276" type="passenger" depart="784.17" from="AB" to="BD"/>
    <trip id="277" type="passenger" depart="787.01" from="DB" to="BC"/>
    <trip id="278" type="passenger" depart="789.85" from="AB" to="DB"/>
    <trip id="279" type="passenger" depart="792.69" from="DB" to="BC"/>
    <trip id="280" type="passenger" depart="795.53" from="CB" to="BC"/>
    <trip id="281" type="passenger" depart="798.37" from="CB" to="BC"/>
    <trip id="282" type="passenger" depart="801.21" from="DB" to="BD"/>
    <trip id="283" type="passenger" depart="804.06" from="AB" to="CB"/>
    <trip id="284" type="passenger" depart="806.90" from="CB" to="BD"/>
    <trip id="285" type="passenger" depart="809.74" from="DB" to="BC"/>
    <trip id="286" type="passenger" depart="812.58" from="DB" to="CB"/>
    <trip id="287" type="passenger" depart="815.42" from="AB" to="BD"/>
    <trip id="288" type="passenger" depart="818.26" from="CB" to="BC"/>
    <trip id="289" type="passenger" depart="821.10" from="CB" to="BD"/>
    <trip id="290" type="passenger" depart="823.94" from="AB" to="BD"/>
    <trip id="291" type="passenger" depart="826.78" from="DB" to="BA"/>
    <trip id="292" type="passenger" depart="829.63" from="DB" to="BA"/>
    <trip id="293" type="passenger" depart="832.47" from="CB" to="BC"/>
    <trip id="294" type="passenger" depart="835.31" from="BD" to="AB"/>
    <trip id="295" type="passenger" depart="838.15" from="DB" to="BA"/>
    <trip id="296" type="passenger" depart="840.99" from="AB" to="BD"/>
    <trip id="297" type="passenger" depart="843.83" from="BC" to="BD"/>
    <trip id="298" type="passenger" depart="846.67" from="DB" to="BA"/>
    <trip id="299" type="passenger" depart="849.51" from="AB" to="CB"/>
    <trip id="300" type="passenger" depart="852.36" from="AB" to="BD"/>
    <trip id="301" type="passenger" depart="855.20" from="CB" to="BD"/>
    <trip id="302" type="passenger" depart="858.04" from="CB" to="BD"/>
    <trip id="303" type="passenger" depart="860.88" from="CB" to="BD"/>
    <trip id="304" type="passenger" depart="863.72" from="AB" to="BA"/>
    <trip id="305" type="passenger" depart="866.56" from="CB" to="BA"/>
    <trip id="306" type="passenger" depart="869.40" from="CB" to="BC"/>
    <trip id="307" type="passenger" depart="872.24" from="CB" to="BC"/>
    <trip id="308" type="passenger" depart="875.08" from="DB" to="BA"/>
    <trip id="309" type="passenger" depart="877.93" from="DB" to="BA"/>
    <trip id="310" type="passenger" depart="880.77" from="AB" to="BA"/>
    <trip id="311" type="passenger" depart="883.61" from="AB" to="BA"/>
    <trip id="312" type="passenger" depart="886.45" from="CB" to="BD"/>
    <trip id="313" type="passenger" depart="889.29" from="AB" to="BA"/>
    <trip id="314" type="passenger" depart="892.13" from="CB" to="BD"/>
    <trip id="315" type="passenger" depart="894.97" from="DB" to="BC"/>
    <trip id="316" type="passenger" depart="897.81" from="AB" to="BA"/>
    <trip id="317" type="passenger" depart="900.66" from="AB" to="BA"/>
    <trip id="318" type="passenger" depart="903.50" from="AB" to="AB"/>
    <trip id="319" type="passenger" depart="906.34" from="CB" to="BA"/>
    <trip id="320" type="passenger" depart="909.18" from="DB" to="BC"/>
    <trip id="321" type="passenger" depart="912.02" from="DB" to="BA"/>
    <trip id="322" type="passenger" depart="914.86" from="DB" to="BC"/>
    <trip id="323" type="passenger" depart="917.70" from="DB" to="BC"/>
    <trip id="324" type="passenger" depart="920.54" from="CB" to="BC"/>
    <trip id="325" type="passenger" depart="923.39" from="AB" to="BA"/>
    <trip id="326" type="passenger" depart="926.23" from="DB" to="BC"/>
    <trip id="327" type="passenger" depart="929.07" from="DB" to="BC"/>
    <trip id="328" type="passenger" depart="931.91" from="AB" to="BC"/>
    <trip id="329" type="passenger" depart="934.75" from="AB" to="BA"/>
    <trip id="330" type="passenger" depart="937.59" from="CB" to="BA"/>
    <trip id="331" type="passenger" depart="940.43" from="DB" to="BA"/>
    <trip id="332" type="passenger" depart="943.27" from="DB" to="BC"/>
    <trip id="333" type="passenger" depart="946.11" from="DB" to="BA"/>
    <trip id="334" type="passenger" depart="948.96" from="CB" to="BC"/>
    <trip id="335" type="passenger" depart="951.80" from="CB" to="BD"/>
    <trip id="336" type="passenger" depart="954.64" from="DB" to="BA"/>
    <trip id="337" type="passenger" depart="957.48" from="CB" to="BC"/>
    <trip id="338" type="passenger" depart="960.32" from="DB" to="CB"/>
    <trip id="339" type="passenger" depart="963.16" from="AB" to="BA"/>
    <trip id="340" type="passenger" depart="966.00" from="CB" to="BA"/>
    <trip id="341" type="passenger" depart="968.84" from="AB" to="BA"/>
    <trip id="342" type="passenger" depart="971.69" from="AB" to="BC"/>
    <trip id="343" type="passenger" depart="974.53" from="CB" to="BA"/>
    <trip id="344" type="passenger" depart="977.37" from="AB" to="BD"/>
    <trip id="345" type="passenger" depart="980.21" from="DB" to="BC"/>
    <trip id="346" type="passenger" depart="983.05" from="CB" to="BD"/>
    <trip id="347" type="passenger" depart="985.89" from="DB" to="BC"/>
    <trip id="348" type="passenger" depart="988.73" from="CB" to="BD"/>
    <trip id="349" type="passenger" depart="991.57" from="CB" to="BC"/>
    <trip id="350" type="passenger" depart="994.41" from="CB" to="BD"/>
    <trip id="351" type="passenger" depart="997.26" from="DB" to="BA"/>
    <trip id="352" type="passenger" depart="1000.10" from="AB" to="BA"/>
    <trip id="353" type="passenger" depart="1002.94" from="DB" to="BC"/>
    <trip id="354" type="passenger" depart="1005.78" from="AB" to="BA"/>
    <trip id="355" type="passenger" depart="1008.62" from="CB" to="BD"/>
    <trip id="356" type="passenger" depart="1011.46" from="DB" to="BC"/>
    <trip id="357" type="passenger" depart="1014.30" from="CB" to="BA"/>
    <trip id="358" type="passenger" depart="1017.14" from="AB" to="BC"/>
    <trip id="359" type="passenger" depart="1019.99" from="BA" to="BA"/>
    <trip id="360" type="passenger" depart="1022.83" from="AB" to="CB"/>
    <trip id="361" type="passenger" depart="1025.67" from="DB" to="BC"/>
    <trip id="362" type="passenger" depart="1028.51" from="DB" to="DB"/>
    <trip id="363" type="passenger" depart="1031.35" from="CB" to="BA"/>
    <trip id="364" type="passenger" depart="1034.19" from="AB" to="BD"/>
    <trip id="365" type="passenger" depart="1037.03" from="CB" to="BD"/>
    <trip id="366" type="passenger" depart="1039.87" from="DB" to="BA"/>
    <trip id="367" type="passenger" depart="1042.71" from="CB" to="BC"/>
    <trip id="368" type="passenger" depart="1045.56" from="CB" to="BA"/>
    <trip id="369" type="passenger" depart="1048.40" from="BC" to="BA"/>
    <trip id="370" type="passenger" depart="1051.24" from="CB" to="BD"/>
    <trip id="371" type="passenger" depart="1054.08" from="BA" to="BD"/>
    <trip id="372" type="passenger" depart="1056.92" from="AB" to="CB"/>
    <trip id="373" type="passenger" depart="1059.76" from="DB" to="BC"/>
    <trip id="374" type="passenger" depart="1062.60" from="CB" to="BA"/>
    <trip id="375" type="passenger" depart="1065.44" from="BA" to="DB"/>
    <trip id="376" type="passenger" depart="1068.29" from="CB" to="BC"/>
    <trip id="377" type="passenger" depart="1071.13" from="DB" to="BD"/>
    <trip id="378" type="passenger" depart="1073.97" from="CB" to="BC"/>
    <trip id="379" type="passenger" depart="1076.81" from="AB" to="BC"/>
    <trip id="380" type="passenger" depart="1079.65" from="DB" to="BC"/>
    <trip id="381" type="passenger" depart="1082.49" from="DB" to="BA"/>
    <trip id="382" type="passenger" depart="1085.33" from="CB" to="BD"/>
    <trip id="383" type="passenger" depart="1088.17" from="CB" to="BD"/>
    <trip id="384" type="passenger" depart="1091.01" from="AB" to="DB"/>
    <trip id="385" type="passenger" depart="1093.86" from="CB" to="BA"/>
    <trip id="386" type="passenger" depart="1096.70" from="AB" to="BC"/>
    <trip id="387" type="passenger" depart="1099.54" from="CB" to="BA"/>
    <trip id="388" type="passenger" depart="1102.38" from="DB" to="BD"/>
    <trip id="389" type="passenger" depart="1105.22" from="CB" to="BA"/>
    <trip id="390" type="passenger" depart="1108.06" from="DB" to="BC"/>
    <trip id="391" type="passenger" depart="1110.90" from="DB" to="BC"/>
    <trip id="392" type="passenger" depart="1113.74" from="AB" to="BD"/>
    <trip id="393" type="passenger" depart="1116.59" from="DB" to="BA"/>
    <trip id="394" type="passenger" depart="1119.43" from="CB" to="BC"/>
    <trip id="395" type="passenger" depart="1122.27" from="DB" to="BC"/>
    <trip id="396" type="passenger" depart="1125.11" from="DB" to="BD"/>