<edges>
    <edge id="AB" from="A" to="B" numLanes="2" />
    <edge id="BA" from="B" to="A" numLanes="2" />
    
    <edge id="BC" from="B" to="C" numLanes="2" />
    <edge id="CB" from="C" to="B" numLanes="2" />
    
    <edge id="DB" from="D" to="B" numLanes="2" />
    <edge id="BD" from="B" to="D" numLanes="2" />
    
    <edge id="BE" from="B" to="E" numLanes="2" />
    <edge id="EB" from="E" to="B" numLanes="2" />
    </edges>