<?xml version="1.0" encoding="UTF-8"?>

<!-- generated on 2025-03-30 11:38:47.176951 by randomTrips.py v1_22_0+0002-63e50f52594
<configuration>
    <net-file value="traffic_dataset\scenario_4\network.net.xml"/>
    <output-trip-file value="traffic_dataset\scenario_4\routes.rou.xml"/>
    <vehicle-class value="passenger"/>
    <fringe-factor value="10"/>
    <allow-fringe value="True"/>
    <validate value="True"/>
    <period value="1.5527731397998323"/>
</configuration>
-->

<!-- generated on 2025-03-30 11:38:47 by Eclipse SUMO duarouter Version 1.22.0
<duarouterConfiguration xmlns:xsi="http://www.w3.org/2001/XMLSchema-instance" xsi:noNamespaceSchemaLocation="http://sumo.dlr.de/xsd/duarouterConfiguration.xsd">

    <input>
        <net-file value="traffic_dataset\scenario_4\network.net.xml"/>
        <route-files value="traffic_dataset\scenario_4\routes.rou.xml"/>
    </input>

    <output>
        <output-file value="traffic_dataset\scenario_4\routes.rou.xml.tmp"/>
        <alternatives-output value="NUL"/>
        <write-trips value="true"/>
    </output>

    <time>
        <begin value="0"/>
        <end value="3600.0"/>
    </time>

    <report>
        <no-warnings value="true"/>
        <ignore-errors value="true"/>
        <no-step-log value="true"/>
    </report>

</duarouterConfiguration>
-->

<routes xmlns:xsi="http://www.w3.org/2001/XMLSchema-instance" xsi:noNamespaceSchemaLocation="http://sumo.dlr.de/xsd/routes_file.xsd">
    <vType id="passenger" vClass="passenger"/>
    <trip id="0" type="passenger" depart="0.00" from="DB" to="BA"/>
    <trip id="1" type="passenger" depart="1.55" from="BD" to="BA"/>
    <trip id="2" type="passenger" depart="3.11" from="DB" to="BD"/>
    <trip id="3" type="passenger" depart="4.66" from="EB" to="BA"/>
    <trip id="4" type="passenger" depart="6.21" from="CB" to="BA"/>
    <trip id="5" type="passenger" depart="7.76" from="AB" to="BD"/>
    <trip id="6" type="passenger" depart="9.32" from="AB" to="BA"/>
    <trip id="7" type="passenger" depart="10.87" from="DB" to="BD"/>
    <trip id="8" type="passenger" depart="12.42" from="AB" to="BD"/>
    <trip id="9" type="passenger" depart="13.97" from="EB" to="AB"/>
    <trip id="10" type="passenger" depart="15.53" from="EB" to="BD"/>
    <trip id="11" type="passenger" depart="17.08" from="CB" to="BA"/>
    <trip id="12" type="passenger" depart="18.63" from="EB" to="BC"/>
    <trip id="13" type="passenger" depart="20.19" from="AB" to="BA"/>
    <trip id="14" type="passenger" depart="21.74" from="EB" to="BD"/>
    <trip id="15" type="passenger" depart="23.29" from="EB" to="BE"/>
    <trip id="16" type="passenger" depart="24.84" from="CB" to="DB"/>
    <trip id="17" type="passenger" depart="26.40" from="CB" to="BD"/>
    <trip id="18" type="passenger" depart="27.95" from="EB" to="BD"/>
    <trip id="19" type="passenger" depart="29.50" from="EB" to="BD"/>
    <trip id="20" type="passenger" depart="31.06" from="DB" to="BA"/>
    <trip id="21" type="passenger" depart="32.61" from="BA" to="BC"/>
    <trip id="22" type="passenger" depart="34.16" from="AB" to="BA"/>
    <trip id="23" type="passenger" depart="35.71" from="AB" to="BC"/>
    <trip id="24" type="passenger" depart="37.27" from="DB" to="BC"/>
    <trip id="25" type="passenger" depart="38.82" from="CB" to="BA"/>
    <trip id="26" type="passenger" depart="40.37" from="BC" to="CB"/>
    <trip id="27" type="passenger" depart="41.92" from="DB" to="BD"/>
    <trip id="28" type="passenger" depart="43.48" from="AB" to="BE"/>
    <trip id="29" type="passenger" depart="45.03" from="AB" to="BC"/>
    <trip id="30" type="passenger" depart="46.58" from="EB" to="BD"/>
    <trip id="31" type="passenger" depart="48.14" from="DB" to="BD"/>
    <trip id="32" type="passenger" depart="49.69" from="EB" to="BE"/>
    <trip id="33" type="passenger" depart="51.24" from="BA" to="BA"/>
    <trip id="34" type="passenger" depart="52.79" from="BE" to="BC"/>
    <trip id="35" type="passenger" depart="54.35" from="AB" to="CB"/>
    <trip id="36" type="passenger" depart="55.90" from="EB" to="BC"/>
    <trip id="37" type="passenger" depart="57.45" from="DB" to="BC"/>
    <trip id="38" type="passenger" depart="59.01" from="EB" to="BC"/>
    <trip id="39" type="passenger" depart="60.56" from="BC" to="BA"/>
    <trip id="40" type="passenger" depart="62.11" from="DB" to="BC"/>
    <trip id="41" type="passenger" depart="63.66" from="DB" to="BE"/>
    <trip id="42" type="passenger" depart="65.22" from="CB" to="BA"/>
    <trip id="43" type="passenger" depart="66.77" from="EB" to="BD"/>
    <trip id="44" type="passenger" depart="68.32" from="AB" to="BA"/>
    <trip id="45" type="passenger" depart="69.87" from="AB" to="BD"/>
    <trip id="46" type="passenger" depart="71.43" from="EB" to="BC"/>
    <trip id="47" type="passenger" depart="72.98" from="AB" to="BC"/>
    <trip id="48" type="passenger" depart="74.53" from="EB" to="BD"/>
    <trip id="49" type="passenger" depart="76.09" from="EB" to="BE"/>
    <trip id="50" type="passenger" depart="77.64" from="AB" to="BE"/>
    <trip id="51" type="passenger" depart="79.19" from="DB" to="BD"/>
    <trip id="52" type="passenger" depart="80.74" from="BC" to="BD"/>
    <trip id="53" type="passenger" depart="82.30" from="AB" to="BC"/>
    <trip id="54" type="passenger" depart="83.85" from="CB" to="CB"/>
    <trip id="55" type="passenger" depart="85.40" from="EB" to="BC"/>
    <trip id="56" type="passenger" depart="86.96" from="CB" to="BA"/>
    <trip id="57" type="passenger" depart="88.51" from="EB" to="BE"/>
    <trip id="58" type="passenger" depart="90.06" from="BE" to="BD"/>
    <trip id="59" type="passenger" depart="91.61" from="DB" to="BA"/>
    <trip id="60" type="passenger" depart="93.17" from="DB" to="BD"/>
    <trip id="61" type="passenger" depart="94.72" from="EB" to="BD"/>
    <trip id="62" type="passenger" depart="96.27" from="AB" to="BC"/>
    <trip id="63" type="passenger" depart="97.82" from="AB" to="BE"/>
    <trip id="64" type="passenger" depart="99.38" from="EB" to="BE"/>
    <trip id="65" type="passenger" depart="100.93" from="BE" to="BA"/>
    <trip id="66" type="passenger" depart="102.48" from="EB" to="CB"/>
    <trip id="67" type="passenger" depart="104.04" from="AB" to="BD"/>
    <trip id="68" type="passenger" depart="105.59" from="AB" to="BE"/>
    <trip id="69" type="passenger" depart="107.14" from="DB" to="BA"/>
    <trip id="70" type="passenger" depart="108.69" from="CB" to="BD"/>
    <trip id="71" type="passenger" depart="110.25" from="BC" to="BE"/>
    <trip id="72" type="passenger" depart="111.80" from="CB" to="BA"/>
    <trip id="73" type="passenger" depart="113.35" from="CB" to="BE"/>
    <trip id="74" type="passenger" depart="114.91" from="AB" to="BC"/>
    <trip id="75" type="passenger" depart="116.46" from="EB" to="BD"/>
    <trip id="76" type="passenger" depart="118.01" from="CB" to="BD"/>
    <trip id="77" type="passenger" depart="119.56" from="AB" to="BA"/>
    <trip id="78" type="passenger" depart="121.12" from="CB" to="BD"/>
    <trip id="79" type="passenger" depart="122.67" from="BA" to="BA"/>
    <trip id="80" type="passenger" depart="124.22" from="AB" to="BD"/>
    <trip id="81" type="passenger" depart="125.77" from="BA" to="BE"/>
    <trip id="82" type="passenger" depart="127.33" from="EB" to="BA"/>
    <trip id="83" type="passenger" depart="128.88" from="BA" to="BD"/>
    <trip id="84" type="passenger" depart="130.43" from="AB" to="BA"/>
    <trip id="85" type="passenger" depart="131.99" from="EB" to="BD"/>
    <trip id="86" type="passenger" depart="133.54" from="CB" to="BE"/>
    <trip id="87" type="passenger" depart="135.09" from="EB" to="BA"/>
    <trip id="88" type="passenger" depart="136.64" from="AB" to="BC"/>
    <trip id="89" type="passenger" depart="138.20" from="CB" to="BC"/>
    <trip id="90" type="passenger" depart="139.75" from="DB" to="BD"/>
    <trip id="91" type="passenger" depart="141.30" from="EB" to="BA"/>
    <trip id="92" type="passenger" depart="142.86" from="CB" to="BC"/>
    <trip id="93" type="passenger" depart="144.41" from="EB" to="BA"/>
    <trip id="94" type="passenger" depart="145.96" from="AB" to="BC"/>
    <trip id="95" type="passenger" depart="147.51" from="CB" to="BC"/>
    <trip id="96" type="passenger" depart="149.07" from="BA" to="BE"/>
    <trip id="97" type="passenger" depart="150.62" from="CB" to="BE"/>
    <trip id="98" type="passenger" depart="152.17" from="DB" to="BA"/>
    <trip id="99" type="passenger" depart="153.72" from="EB" to="BE"/>
    <trip id="100" type="passenger" depart="155.28" from="EB" to="BE"/>
    <trip id="101" type="passenger" depart="156.83" from="EB" to="BA"/>
    <trip id="102" type="passenger" depart="158.38" from="CB" to="BA"/>
    <trip id="103" type="passenger" depart="159.94" from="CB" to="BA"/>
    <trip id="104" type="passenger" depart="161.49" from="CB" to="EB"/>
    <trip id="105" type="passenger" depart="163.04" from="BC" to="BE"/>
    <trip id="106" type="passenger" depart="164.59" from="CB" to="BC"/>
    <trip id="107" type="passenger" depart="166.15" from="EB" to="EB"/>
    <trip id="108" type="passenger" depart="167.70" from="DB" to="BE"/>
    <trip id="109" type="passenger" depart="169.25" from="AB" to="BC"/>
    <trip id="110" type="passenger" depart="170.81" from="EB" to="BD"/>
    <trip id="111" type="passenger" depart="172.36" from="CB" to="BE"/>
    <trip id="112" type="passenger" depart="173.91" from="AB" to="BD"/>
    <trip id="113" type="passenger" depart="175.46" from="CB" to="BE"/>
    <trip id="114" type="passenger" depart="177.02" from="AB" to="DB"/>
    <trip id="115" type="passenger" depart="178.57" from="AB" to="BA"/>
    <trip id="116" type="passenger" depart="180.12" from="DB" to="BD"/>
    <trip id="117" type="passenger" depart="181.67" from="BA" to="BA"/>
    <trip id="118" type="passenger" depart="183.23" from="EB" to="BA"/>
    <trip id="119" type="passenger" depart="184.78" from="DB" to="BD"/>
    <trip id="120" type="passenger" depart="186.33" from="CB" to="BD"/>
    <trip id="121" type="passenger" depart="187.89" from="CB" to="CB"/>
    <trip id="122" type="passenger" depart="189.44" from="AB" to="BE"/>
    <trip id="123" type="passenger" depart="190.99" from="BA" to="BC"/>
    <trip id="124" type="passenger" depart="192.54" from="DB" to="BC"/>
    <trip id="125" type="passenger" depart="194.10" from="BE" to="BE"/>
    <trip id="126" type="passenger" depart="195.65" from="AB" to="BC"/>
    <trip id="127" type="passenger" depart="197.20" from="EB" to="EB"/>
    <trip id="128" type="passenger" depart="198.75" from="AB" to="BA"/>
    <trip id="129" type="passenger" depart="200.31" from="BC" to="CB"/>
    <trip id="130" type="passenger" depart="201.86" from="EB" to="BE"/>
    <trip id="131" type="passenger" depart="203.41" from="CB" to="BA"/>
    <trip id="132" type="passenger" depart="204.97" from="EB" to="BD"/>
    <trip id="133" type="passenger" depart="206.52" from="DB" to="EB"/>
    <trip id="134" type="passenger" depart="208.07" from="DB" to="AB"/>
    <trip id="135" type="passenger" depart="209.62" from="EB" to="BC"/>
    <trip id="136" type="passenger" depart="211.18" from="DB" to="CB"/>
    <trip id="137" type="passenger" depart="212.73" from="AB" to="BA"/>
    <trip id="138" type="passenger" depart="214.28" from="AB" to="BD"/>
    <trip id="139" type="passenger" depart="215.84" from="BC" to="BD"/>
    <trip id="140" type="passenger" depart="217.39" from="DB" to="BA"/>
    <trip id="141" type="passenger" depart="218.94" from="DB" to="BC"/>
    <trip id="142" type="passenger" depart="220.49" from="CB" to="BE"/>
    <trip id="143" type="passenger" depart="222.05" from="EB" to="BA"/>
    <trip id="144" type="passenger" depart="223.60" from="CB" to="BC"/>
    <trip id="145" type="passenger" depart="225.15" from="AB" to="BE"/>
    <trip id="146" type="passenger" depart="226.70" from="DB" to="BC"/>
    <trip id="147" type="passenger" depart="228.26" from="DB" to="BD"/>
    <trip id="148" type="passenger" depart="229.81" from="CB" to="AB"/>
    <trip id="149" type="passenger" depart="231.36" from="AB" to="BE"/>
    <trip id="150" type="passenger" depart="232.92" from="EB" to="BD"/>
    <trip id="151" type="passenger" depart="234.47" from="EB" to="BD"/>
    <trip id="152" type="passenger" depart="236.02" from="AB" to="BA"/>
    <trip id="153" type="passenger" depart="237.57" from="BE" to="BE"/>
    <trip id="154" type="passenger" depart="239.13" from="EB" to="BE"/>
    <trip id="155" type="passenger" depart="240.68" from="EB" to="BA"/>
    <trip id="156" type="passenger" depart="242.23" from="BA" to="BA"/>
    <trip id="157" type="passenger" depart="243.79" from="EB" to="BE"/>
    <trip id="158" type="passenger" depart="245.34" from="CB" to="BD"/>
    <trip id="159" type="passenger" depart="246.89" from="AB" to="BE"/>
    <trip id="160" type="passenger" depart="248.44" from="EB" to="DB"/>
    <trip id="161" type="passenger" depart="250.00" from="EB" to="BE"/>
    <trip id="162" type="passenger" depart="251.55" from="AB" to="BE"/>
    <trip id="163" type="passenger" depart="253.10" from="CB" to="BE"/>
    <trip id="164" type="passenger" depart="254.65" from="EB" to="BE"/>
    <trip id="165" type="passenger" depart="256.21" from="EB" to="BC"/>
    <trip id="166" type="passenger" depart="257.76" from="EB" to="BA"/>
    <trip id="167" type="passenger" depart="259.31" from="EB" to="BE"/>
    <trip id="168" type="passenger" depart="260.87" from="AB" to="BE"/>
    <trip id="169" type="passenger" depart="262.42" from="CB" to="BC"/>
    <trip id="170" type="passenger" depart="263.97" from="EB" to="BA"/>
    <trip id="171" type="passenger" depart="265.52" from="AB" to="BA"/>
    <trip id="172" type="passenger" depart="267.08" from="CB" to="BE"/>
    <trip id="173" type="passenger" depart="268.63" from="EB" to="BC"/>
    <trip id="174" type="passenger" depart="270.18" from="DB" to="BC"/>
    <trip id="175" type="passenger" depart="271.74" from="EB" to="BD"/>
    <trip id="176" type="passenger" depart="273.29" from="EB" to="BA"/>
    <trip id="177" type="passenger" depart="274.84" from="EB" to="BA"/>
    <trip id="178" type="passenger" depart="276.39" from="EB" to="BC"/>
    <trip id="179" type="passenger" depart="277.95" from="AB" to="BC"/>
    <trip id="180" type="passenger" depart="279.50" from="DB" to="BC"/>
    <trip id="181" type="passenger" depart="281.05" from="DB" to="BD"/>
    <trip id="182" type="passenger" depart="282.60" from="CB" to="BD"/>
    <trip id="183" type="passenger" depart="284.16" from="BC" to="BE"/>
    <trip id="184" type="passenger" depart="285.71" from="AB" to="BE"/>
    <trip id="185" type="passenger" depart="287.26" from="CB" to="BE"/>
    <trip id="186" type="passenger" depart="288.82" from="DB" to="BD"/>
    <trip id="187" type="passenger" depart="290.37" from="CB" to="BA"/>
    <trip id="188" type="passenger" depart="291.92" from="DB" to="BC"/>
    <trip id="189" type="passenger" depart="293.47" from="BE" to="BE"/>
    <trip id="190" type="passenger" depart="295.03" from="DB" to="BC"/>
    <trip id="191" type="passenger" depart="296.58" from="BE" to="BC"/>
    <trip id="192" type="passenger" depart="298.13" from="CB" to="BC"/>
    <trip id="193" type="passenger" depart="299.69" from="AB" to="BC"/>
    <trip id="194" type="passenger" depart="301.24" from="EB" to="BD"/>
    <trip id="195" type="passenger" depart="302.79" from="EB" to="BD"/>
    <trip id="196" type="passenger" depart="304.34" from="BE" to="BD"/>
    <trip id="197" type="passenger" depart="305.90" from="AB" to="BC"/>
    <trip id="198" type="passenger" depart="307.45" from="CB" to="BD"/>
    <trip id="199" type="passenger" depart="309.00" from="DB" to="BC"/>
    <trip id="200" type="passenger" depart="310.55" from="CB" to="BA"/>
    <trip id="201" type="passenger" depart="312.11" from="CB" to="BE"/>
    <trip id="202" type="passenger" depart="313.66" from="EB" to="BA"/>
    <trip id="203" type="passenger" depart="315.21" from="AB" to="BD"/>
    <trip id="204" type="passenger" depart="316.77" from="DB" to="BC"/>
    <trip id="205" type="passenger" depart="318.32" from="EB" to="BE"/>
    <trip id="206" type="passenger" depart="319.87" from="DB" to="BA"/>
    <trip id="207" type="passenger" depart="321.42" from="AB" to="BA"/>
    <trip id="208" type="passenger" depart="322.98" from="BA" to="BC"/>
    <trip id="209" type="passenger" depart="324.53" from="EB" to="BA"/>
    <trip id="210" type="passenger" depart="326.08" from="CB" to="BD"/>
    <trip id="211" type="passenger" depart="327.64" from="AB" to="BD"/>
    <trip id="212" type="passenger" depart="329.19" from="CB" to="BA"/>
    <trip id="213" type="passenger" depart="330.74" from="DB" to="AB"/>
    <trip id="214" type="passenger" depart="332.29" from="DB" to="BE"/>
    <trip id="215" type="passenger" depart="333.85" from="AB" to="BC"/>
    <trip id="216" type="passenger" depart="335.40" from="AB" to="DB"/>
    <trip id="217" type="passenger" depart="336.95" from="CB" to="BA"/>
    <trip id="218" type="passenger" depart="338.50" from="BA" to="BE"/>
    <trip id="219" type="passenger" depart="340.06" from="CB" to="BE"/>
    <trip id="220" type="passenger" depart="341.61" from="DB" to="EB"/>
    <trip id="221" type="passenger" depart="343.16" from="DB" to="CB"/>
    <trip id="222" type="passenger" depart="344.72" from="EB" to="BD"/>
    <trip id="223" type="passenger" depart="346.27" from="DB" to="BD"/>
    <trip id="224" type="passenger" depart="347.82" from="EB" to="BD"/>
    <trip id="225" type="passenger" depart="349.37" from="EB" to="BE"/>
    <trip id="226" type="passenger" depart="350.93" from="CB" to="BC"/>
    <trip id="227" type="passenger" depart="352.48" from="BA" to="BD"/>
    <trip id="228" type="passenger" depart="354.03" from="DB" to="BD"/>
    <trip id="229" type="passenger" depart="355.59" from="DB" to="BC"/>
    <trip id="230" type="passenger" depart="357.14" from="AB" to="BC"/>
    <trip id="231" type="passenger" depart="358.69" from="BC" to="BC"/>
    <trip id="232" type="passenger" depart="360.24" from="CB" to="BA"/>
    <trip id="233" type="passenger" depart="361.80" from="BA" to="BD"/>
    <trip id="234" type="passenger" depart="363.35" from="DB" to="BA"/>
    <trip id="235" type="passenger" depart="364.90" from="CB" to="BD"/>
    <trip id="236" type="passenger" depart="366.45" from="CB" to="BA"/>
    <trip id="237" type="passenger" depart="368.01" from="CB" to="BE"/>
    <trip id="238" type="passenger" depart="369.56" from="DB" to="BD"/>
    <trip id="239" type="passenger" depart="371.11" from="EB" to="BE"/>
    <trip id="240" type="passenger" depart="372.67" from="CB" to="AB"/>
    <trip id="241" type="passenger" depart="374.22" from="CB" to="BE"/>
    <trip id="242" type="passenger" depart="375.77" from="EB" to="CB"/>
    <trip id="243" type="passenger" depart="377.32" from="CB" to="BE"/>
    <trip id="244" type="passenger" depart="378.88" from="DB" to="BD"/>
    <trip id="245" type="passenger" depart="380.43" from="AB" to="BA"/>
    <trip id="246" type="passenger" depart="381.98" from="CB" to="BA"/>
    <trip id="247" type="passenger" depart="383.53" from="CB" to="BD"/>
    <trip id="248" type="passenger" depart="385.09" from="CB" to="BA"/>
    <trip id="249" type="passenger" depart="386.64" from="CB" to="BA"/>
    <trip id="250" type="passenger" depart="388.19" from="DB" to="BA"/>
    <trip id="251" type="passenger" depart="389.75" from="CB" to="BD"/>
    <trip id="252" type="passenger" depart="391.30" from="AB" to="BD"/>
    <trip id="253" type="passenger" depart="392.85" from="AB" to="BC"/>
    <trip id="254" type="passenger" depart="394.40" from="AB" to="BC"/>
    <trip id="255" type="passenger" depart="395.96" from="AB" to="BC"/>
    <trip id="256" type="passenger" depart="397.51" from="DB" to="BC"/>
    <trip id="257" type="passenger" depart="399.06" from="DB" to="BE"/>
    <trip id="258" type="passenger" depart="400.62" from="BC" to="BA"/>
    <trip id="259" type="passenger" depart="402.17" from="AB" to="BD"/>
    <trip id="260" type="passenger" depart="403.72" from="EB" to="BC"/>
    <trip id="261" type="passenger" depart="405.27" from="DB" to="BE"/>
    <trip id="262" type="passenger" depart="406.83" from="DB" to="BE"/>
    <trip id="263" type="passenger" depart="408.38" from="EB" to="BA"/>
    <trip id="264" type="passenger" depart="409.93" from="AB" to="BA"/>
    <trip id="265" type="passenger" depart="411.48" from="AB" to="BD"/>
    <trip id="266" type="passenger" depart="413.04" from="DB" to="BA"/>
    <trip id="267" type="passenger" depart="414.59" from="DB" to="BE"/>
    <trip id="268" type="passenger" depart="416.14" from="AB" to="BD"/>
    <trip id="269" type="passenger" depart="417.70" from="DB" to="BA"/>
    <trip id="270" type="passenger" depart="419.25" from="EB" to="DB"/>
    <trip id="271" type="passenger" depart="420.80" from="AB" to="BA"/>
    <trip id="272" type="passenger" depart="422.35" from="BE" to="BD"/>
    <trip id="273" type="passenger" depart="423.91" from="EB" to="BC"/>
    <trip id="274" type="passenger" depart="425.46" from="DB" to="BA"/>
    <trip id="275" type="passenger" depart="427.01" from="DB" to="BD"/>
    <trip id="276" type="passenger" depart="428.57" from="AB" to="BE"/>
    <trip id="277" type="passenger" depart="430.12" from="EB" to="BD"/>
    <trip id="278" type="passenger" depart="431.67" from="AB" to="EB"/>
    <trip id="279" type="passenger" depart="433.22" from="EB" to="BC"/>
    <trip id="280" type="passenger" depart="434.78" from="CB" to="BC"/>
    <trip id="281" type="passenger" depart="436.33" from="CB" to="BC"/>
    <trip id="282" type="passenger" depart="437.88" from="EB" to="BE"/>
    <trip id="283" type="passenger" depart="439.43" from="AB" to="DB"/>
    <trip id="284" type="passenger" depart="440.99" from="DB" to="BE"/>
    <trip id="285" type="passenger" depart="442.54" from="DB" to="BC"/>
    <trip id="286" type="passenger" depart="444.09" from="DB" to="DB"/>
    <trip id="287" type="passenger" depart="445.65" from="BC" to="BE"/>
    <trip id="288" type="passenger" depart="447.20" from="CB" to="BD"/>
    <trip id="289" type="passenger" depart="448.75" from="CB" to="BE"/>
    <trip id="290" type="passenger" depart="450.30" from="BC" to="BE"/>
    <trip id="291" type="passenger" depart="451.86" from="EB" to="BA"/>
    <trip id="292" type="passenger" depart="453.41" from="EB" to="BA"/>
    <trip id="293" type="passenger" depart="454.96" from="CB" to="BD"/>
    <trip id="294" type="passenger" depart="456.52" from="CB" to="BA"/>
    <trip id="295" type="passenger" depart="458.07" from="EB" to="BA"/>
    <trip id="296" type="passenger" depart="459.62" from="AB" to="BE"/>
    <trip id="297" type="passenger" depart="461.17" from="CB" to="BE"/>
    <trip id="298" type="passenger" depart="462.73" from="DB" to="BC"/>
    <trip id="299" type="passenger" depart="464.28" from="AB" to="CB"/>
    <trip id="300" type="passenger" depart="465.83" from="AB" to="BE"/>
    <trip id="301" type="passenger" depart="467.38" from="CB" to="BE"/>
    <trip id="302" type="passenger" depart="468.94" from="DB" to="BD"/>
    <trip id="303" type="passenger" depart="470.49" from="CB" to="BE"/>
    <trip id="304" type="passenger" depart="472.04" from="AB" to="BA"/>
    <trip id="305" type="passenger" depart="473.60" from="DB" to="BC"/>
    <trip id="306" type="passenger" depart="475.15" from="DB" to="BC"/>
    <trip id="307" type="passenger" depart="476.70" from="CB" to="BC"/>
    <trip id="308" type="passenger" depart="478.25" from="DB" to="BC"/>
    <trip id="309" type="passenger" depart="479.81" from="DB" to="BC"/>
    <trip id="310" type="passenger" depart="481.36" from="BC" to="BA"/>
    <trip id="311" type="passenger" depart="482.91" from="AB" to="BA"/>
    <trip id="312" type="passenger" depart="484.47" from="CB" to="BE"/>
    <trip id="313" type="passenger" depart="486.02" from="AB" to="BA"/>
    <trip id="314" type="passenger" depart="487.57" from="CB" to="BE"/>
    <trip id="315" type="passenger" depart="489.12" from="EB" to="BD"/>
    <trip id="316" type="passenger" depart="490.68" from="BD" to="BA"/>
    <trip id="317" type="passenger" depart="492.23" from="AB" to="BA"/>
    <trip id="318" type="passenger" depart="493.78" from="AB" to="AB"/>
    <trip id="319" type="passenger" depart="495.33" from="CB" to="BC"/>
    <trip id="320" type="passenger" depart="496.89" from="EB" to="BD"/>
    <trip id="321" type="passenger" depart="498.44" from="DB" to="BA"/>
    <trip id="322" type="passenger" depart="499.99" from="EB" to="BD"/>
    <trip id="323" type="passenger" depart="501.55" from="EB" to="BD"/>
    <trip id="324" type="passenger" depart="503.10" from="CB" to="BC"/>
    <trip id="325" type="passenger" depart="504.65" from="AB" to="BA"/>
    <trip id="326" type="passenger" depart="506.20" from="EB" to="BD"/>
    <trip id="327" type="passenger" depart="507.76" from="EB" to="BC"/>
    <trip id="328" type="passenger" depart="509.31" from="AB" to="BD"/>
    <trip id="329" type="passenger" depart="510.86" from="AB" to="BA"/>
    <trip id="330" type="passenger" depart="512.42" from="DB" to="BC"/>
    <trip id="331" type="passenger" depart="513.97" from="EB" to="BA"/>
    <trip id="332" type="passenger" depart="515.52" from="DB" to="BD"/>
    <trip id="333" type="passenger" depart="517.07" from="EB" to="BA"/>
    <trip id="334" type="passenger" depart="518.63" from="CB" to="BC"/>
    <trip id="335" type="passenger" depart="520.18" from="CB" to="BE"/>
    <trip id="336" type="passenger" depart="521.73" from="EB" to="BC"/>
    <trip id="337" type="passenger" depart="523.28" from="DB" to="BD"/>
    <trip id="338" type="passenger" depart="524.84" from="DB" to="CB"/>
    <trip id="339" type="passenger" depart="526.39" from="AB" to="BA"/>
    <trip id="340" type="passenger" depart="527.94" from="DB" to="BA"/>
    <trip id="341" type="passenger" depart="529.50" from="AB" to="BA"/>
    <trip id="342" type="passenger" depart="531.05" from="AB" to="BC"/>
    <trip id="343" type="passenger" depart="532.60" from="DB" to="BC"/>
    <trip id="344" type="passenger" depart="534.15" from="BA" to="BE"/>
    <trip id="345" type="passenger" depart="535.71" from="DB" to="BC"/>
    <trip id="346" type="passenger" depart="537.26" from="DB" to="BE"/>
    <trip id="347" type="passenger" depart="538.81" from="EB" to="BD"/>
    <trip id="348" type="passenger" depart="540.37" from="DB" to="CB"/>
    <trip id="349" type="passenger" depart="541.92" from="CB" to="BD"/>
    <trip id="350" type="passenger" depart="543.47" from="DB" to="BE"/>
    <trip id="351" type="passenger" depart="545.02" from="EB" to="BA"/>
    <trip id="352" type="passenger" depart="546.58" from="AB" to="BC"/>
    <trip id="353" type="passenger" depart="548.13" from="DB" to="BD"/>
    <trip id="354" type="passenger" depart="549.68" from="BD" to="BA"/>
    <trip id="355" type="passenger" depart="551.23" from="DB" to="BD"/>
    <trip id="356" type="passenger" depart="552.79" from="EB" to="BD"/>
    <trip id="357" type="passenger" depart="554.34" from="CB" to="BA"/>
    <trip id="358" type="passenger" depart="555.89" from="AB" to="BC"/>
    <trip id="359" type="passenger" depart="557.45" from="CB" to="BC"/>
    <trip id="360" type="passenger" depart="559.00" from="AB" to="DB"/>
    <trip id="361" type="passenger" depart="560.55" from="EB" to="BD"/>
    <trip id="362" type="passenger" depart="562.10" from="EB" to="EB"/>
    <trip id="363" type="passenger" depart="563.66" from="DB" to="BC"/>
    <trip id="364" type="passenger" depart="565.21" from="AB" to="BE"/>
    <trip id="365" type="passenger" depart="566.76" from="CB" to="BD"/>
    <trip id="366" type="passenger" depart="568.31" from="EB" to="BA"/>
    <trip id="367" type="passenger" depart="569.87" from="DB" to="BD"/>
    <trip id="368" type="passenger" depart="571.42" from="CB" to="BA"/>
    <trip id="369" type="passenger" depart="572.97" from="CB" to="BC"/>
    <trip id="370" type="passenger" depart="574.53" from="DB" to="BE"/>
    <trip id="371" type="passenger" depart="576.08" from="CB" to="BD"/>
    <trip id="372" type="passenger" depart="577.63" from="BD" to="CB"/>
    <trip id="373" type="passenger" depart="579.18" from="EB" to="BD"/>
    <trip id="374" type="passenger" depart="580.74" from="CB" to="BC"/>
    <trip id="375" type="passenger" depart="582.29" from="CB" to="DB"/>
    <trip id="376" type="passenger" depart="583.84" from="CB" to="BD"/>
    <trip id="377" type="passenger" depart="585.40" from="EB" to="BD"/>
    <trip id="378" type="passenger" depart="586.95" from="CB" to="BC"/>
    <trip id="379" type="passenger" depart="588.50" from="AB" to="BC"/>
    <trip id="380" type="passenger" depart="590.05" from="DB" to="BD"/>
    <trip id="381" type="passenger" depart="591.61" from="DB" to="BA"/>
    <trip id="382" type="passenger" depart="593.16" from="DB" to="BE"/>
    <trip id="383" type="passenger" depart="594.71" from="CB" to="BD"/>
    <trip id="384" type="passenger" depart="596.26" from="AB" to="DB"/>
    <trip id="385" type="passenger" depart="597.82" from="DB" to="BA"/>
    <trip id="386" type="passenger" depart="599.37" from="AB" to="BD"/>
    <trip id="387" type="passenger" depart="600.92" from="DB" to="BA"/>
    <trip id="388" type="passenger" depart="602.48" from="EB" to="BE"/>
    <trip id="389" type="passenger" depart="604.03" from="CB" to="BA"/>
    <trip id="390" type="passenger" depart="605.58" from="EB" to="BD"/>
    <trip id="391" type="passenger" depart="607.13" from="DB" to="BD"/>
    <trip id="392" type="passenger" depart="608.69" from="BD" to="BE"/>
    <trip id="393" type="passenger" depart="610.24" from="EB" to="BA"/>
    <trip id="394" type="passenger" depart="611.79" from="DB" to="BC"/>
    <trip id="395" type="passenger" depart="613.35" from="EB" to="BD"/>
    <trip id="396" type="passenger" depart="614.90" from="EB" to="BE"/>
    <trip id="397" type="passenger" depart="616.45" from="BD" to="BE"/>