<?xml version="1.0" encoding="UTF-8"?>

<!-- generated on 2025-03-30 11:38:51.346577 by randomTrips.py v1_22_0+0002-63e50f52594
<configuration>
    <net-file value="traffic_dataset\scenario_9\network.net.xml"/>
    <output-trip-file value="traffic_dataset\scenario_9\routes.rou.xml"/>
    <vehicle-class value="passenger"/>
    <fringe-factor value="10"/>
    <allow-fringe value="True"/>
    <validate value="True"/>
    <period value="3.188510689410402"/>
</configuration>
-->

<!-- generated on 2025-03-30 11:38:51 by Eclipse SUMO duarouter Version 1.22.0
<duarouterConfiguration xmlns:xsi="http://www.w3.org/2001/XMLSchema-instance" xsi:noNamespaceSchemaLocation="http://sumo.dlr.de/xsd/duarouterConfiguration.xsd">

    <input>
        <net-file value="traffic_dataset\scenario_9\network.net.xml"/>
        <route-files value="traffic_dataset\scenario_9\routes.rou.xml"/>
    </input>

    <output>
        <output-file value="traffic_dataset\scenario_9\routes.rou.xml.tmp"/>
        <alternatives-output value="NUL"/>
        <write-trips value="true"/>
    </output>

    <time>
        <begin value="0"/>
        <end value="3600.0"/>
    </time>

    <report>
        <no-warnings value="true"/>
        <ignore-errors value="true"/>
        <no-step-log value="true"/>
    </report>

</duarouterConfiguration>
-->

<routes xmlns:xsi="http://www.w3.org/2001/XMLSchema-instance" xsi:noNamespaceSchemaLocation="http://sumo.dlr.de/xsd/routes_file.xsd">
    <vType id="passenger" vClass="passenger"/>
    <trip id="0" type="passenger" depart="0.00" from="CB" to="AB"/>
    <trip id="1" type="passenger" depart="3.19" from="AB" to="BA"/>
    <trip id="2" type="passenger" depart="6.38" from="DB" to="BD"/>
    <trip id="3" type="passenger" depart="9.57" from="DB" to="BA"/>
    <trip id="4" type="passenger" depart="12.75" from="CB" to="AB"/>
    <trip id="5" type="passenger" depart="15.94" from="AB" to="BC"/>
    <trip id="6" type="passenger" depart="19.13" from="AB" to="BA"/>
    <trip id="7" type="passenger" depart="22.32" from="CB" to="BC"/>
    <trip id="8" type="passenger" depart="25.51" from="AB" to="BC"/>
    <trip id="9" type="passenger" depart="28.70" from="DB" to="AB"/>
    <trip id="10" type="passenger" depart="31.89" from="DB" to="BD"/>
    <trip id="11" type="passenger" depart="35.07" from="BC" to="BA"/>
    <trip id="12" type="passenger" depart="38.26" from="DB" to="BC"/>
    <trip id="13" type="passenger" depart="41.45" from="AB" to="BA"/>
    <trip id="14" type="passenger" depart="44.64" from="DB" to="BC"/>
    <trip id="15" type="passenger" depart="47.83" from="DB" to="BD"/>
    <trip id="16" type="passenger" depart="51.02" from="CB" to="DB"/>
    <trip id="17" type="passenger" depart="54.20" from="BD" to="BC"/>
    <trip id="18" type="passenger" depart="57.39" from="DB" to="BC"/>
    <trip id="19" type="passenger" depart="60.58" from="DB" to="BC"/>
    <trip id="20" type="passenger" depart="63.77" from="DB" to="BA"/>
    <trip id="21" type="passenger" depart="66.96" from="AB" to="BA"/>
    <trip id="22" type="passenger" depart="70.15" from="AB" to="BA"/>
    <trip id="23" type="passenger" depart="73.34" from="AB" to="BA"/>
    <trip id="24" type="passenger" depart="76.52" from="CB" to="BC"/>
    <trip id="25" type="passenger" depart="79.71" from="BD" to="BA"/>
    <trip id="26" type="passenger" depart="82.90" from="AB" to="BD"/>
    <trip id="27" type="passenger" depart="86.09" from="CB" to="BC"/>
    <trip id="28" type="passenger" depart="89.28" from="AB" to="BD"/>
    <trip id="29" type="passenger" depart="92.47" from="AB" to="BC"/>
    <trip id="30" type="passenger" depart="95.66" from="DB" to="BD"/>
    <trip id="31" type="passenger" depart="98.84" from="CB" to="BD"/>
    <trip id="32" type="passenger" depart="102.03" from="DB" to="BD"/>
    <trip id="33" type="passenger" depart="105.22" from="AB" to="BA"/>
    <trip id="34" type="passenger" depart="108.41" from="BA" to="BA"/>
    <trip id="35" type="passenger" depart="111.60" from="AB" to="CB"/>
    <trip id="36" type="passenger" depart="114.79" from="DB" to="BA"/>
    <trip id="37" type="passenger" depart="117.97" from="CB" to="BC"/>
    <trip id="38" type="passenger" depart="121.16" from="DB" to="BC"/>
    <trip id="39" type="passenger" depart="124.35" from="AB" to="BA"/>
    <trip id="40" type="passenger" depart="127.54" from="CB" to="BA"/>
    <trip id="41" type="passenger" depart="130.73" from="CB" to="BD"/>
    <trip id="42" type="passenger" depart="133.92" from="CB" to="BA"/>
    <trip id="43" type="passenger" depart="137.11" from="DB" to="BC"/>
    <trip id="44" type="passenger" depart="140.29" from="AB" to="BA"/>
    <trip id="45" type="passenger" depart="143.48" from="AB" to="BC"/>
    <trip id="46" type="passenger" depart="146.67" from="DB" to="BC"/>
    <trip id="47" type="passenger" depart="149.86" from="AB" to="BC"/>
    <trip id="48" type="passenger" depart="153.05" from="DB" to="BC"/>
    <trip id="49" type="passenger" depart="156.24" from="DB" to="BD"/>
    <trip id="50" type="passenger" depart="159.43" from="AB" to="BD"/>
    <trip id="51" type="passenger" depart="162.61" from="CB" to="BC"/>
    <trip id="52" type="passenger" depart="165.80" from="AB" to="BD"/>
    <trip id="53" type="passenger" depart="168.99" from="AB" to="BC"/>
    <trip id="54" type="passenger" depart="172.18" from="CB" to="CB"/>
    <trip id="55" type="passenger" depart="175.37" from="DB" to="BA"/>
    <trip id="56" type="passenger" depart="178.56" from="CB" to="BA"/>
    <trip id="57" type="passenger" depart="181.75" from="DB" to="BD"/>
    <trip id="58" type="passenger" depart="184.93" from="AB" to="BD"/>
    <trip id="59" type="passenger" depart="188.12" from="CB" to="BA"/>
    <trip id="60" type="passenger" depart="191.31" from="DB" to="BC"/>
    <trip id="61" type="passenger" depart="194.50" from="DB" to="BC"/>
    <trip id="62" type="passenger" depart="197.69" from="AB" to="BA"/>
    <trip id="63" type="passenger" depart="200.88" from="AB" to="BD"/>
    <trip id="64" type="passenger" depart="204.06" from="DB" to="BD"/>
    <trip id="65" type="passenger" depart="207.25" from="BA" to="BA"/>
    <trip id="66" type="passenger" depart="210.44" from="DB" to="CB"/>
    <trip id="67" type="passenger" depart="213.63" from="AB" to="BC"/>
    <trip id="68" type="passenger" depart="216.82" from="AB" to="BD"/>
    <trip id="69" type="passenger" depart="220.01" from="DB" to="BA"/>
    <trip id="70" type="passenger" depart="223.20" from="CB" to="BC"/>
    <trip id="71" type="passenger" depart="226.38" from="AB" to="BD"/>
    <trip id="72" type="passenger" depart="229.57" from="CB" to="BA"/>
    <trip id="73" type="passenger" depart="232.76" from="CB" to="BD"/>
    <trip id="74" type="passenger" depart="235.95" from="AB" to="BA"/>
    <trip id="75" type="passenger" depart="239.14" from="DB" to="BD"/>
    <trip id="76" type="passenger" depart="242.33" from="CB" to="BC"/>
    <trip id="77" type="passenger" depart="245.52" from="AB" to="BA"/>
    <trip id="78" type="passenger" depart="248.70" from="BC" to="BC"/>
    <trip id="79" type="passenger" depart="251.89" from="AB" to="BA"/>
    <trip id="80" type="passenger" depart="255.08" from="AB" to="BC"/>
    <trip id="81" type="passenger" depart="258.27" from="AB" to="BD"/>
    <trip id="82" type="passenger" depart="261.46" from="DB" to="BA"/>
    <trip id="83" type="passenger" depart="264.65" from="AB" to="BD"/>
    <trip id="84" type="passenger" depart="267.83" from="AB" to="BA"/>
    <trip id="85" type="passenger" depart="271.02" from="DB" to="BC"/>
    <trip id="86" type="passenger" depart="274.21" from="CB" to="BD"/>
    <trip id="87" type="passenger" depart="277.40" from="DB" to="BA"/>
    <trip id="88" type="passenger" depart="280.59" from="AB" to="BC"/>
    <trip id="89" type="passenger" depart="283.78" from="CB" to="BC"/>
    <trip id="90" type="passenger" depart="286.97" from="DB" to="BD"/>
    <trip id="91" type="passenger" depart="290.15" from="DB" to="BA"/>
    <trip id="92" type="passenger" depart="293.34" from="CB" to="BC"/>
    <trip id="93" type="passenger" depart="296.53" from="DB" to="BA"/>
    <trip id="94" type="passenger" depart="299.72" from="AB" to="BC"/>
    <trip id="95" type="passenger" depart="302.91" from="CB" to="BA"/>
    <trip id="96" type="passenger" depart="306.10" from="AB" to="BD"/>
    <trip id="97" type="passenger" depart="309.29" from="CB" to="BD"/>
    <trip id="98" type="passenger" depart="312.47" from="CB" to="BA"/>
    <trip id="99" type="passenger" depart="315.66" from="DB" to="BD"/>
    <trip id="100" type="passenger" depart="318.85" from="DB" to="BD"/>
    <trip id="101" type="passenger" depart="322.04" from="DB" to="BA"/>
    <trip id="102" type="passenger" depart="325.23" from="CB" to="BA"/>
    <trip id="103" type="passenger" depart="328.42" from="CB" to="BA"/>
    <trip id="104" type="passenger" depart="331.61" from="BD" to="DB"/>
    <trip id="105" type="passenger" depart="334.79" from="AB" to="BD"/>
    <trip id="106" type="passenger" depart="337.98" from="CB" to="BC"/>
    <trip id="107" type="passenger" depart="341.17" from="DB" to="DB"/>
    <trip id="108" type="passenger" depart="344.36" from="CB" to="BD"/>
    <trip id="109" type="passenger" depart="347.55" from="AB" to="BA"/>
    <trip id="110" type="passenger" depart="350.74" from="DB" to="BC"/>
    <trip id="111" type="passenger" depart="353.92" from="CB" to="BD"/>
    <trip id="112" type="passenger" depart="357.11" from="AB" to="BC"/>
    <trip id="113" type="passenger" depart="360.30" from="CB" to="BD"/>
    <trip id="114" type="passenger" depart="363.49" from="AB" to="CB"/>
    <trip id="115" type="passenger" depart="366.68" from="AB" to="BA"/>
    <trip id="116" type="passenger" depart="369.87" from="CB" to="BD"/>
    <trip id="117" type="passenger" depart="373.06" from="AB" to="BA"/>
    <trip id="118" type="passenger" depart="376.24" from="DB" to="BA"/>
    <trip id="119" type="passenger" depart="379.43" from="CB" to="BC"/>
    <trip id="120" type="passenger" depart="382.62" from="CB" to="BC"/>
    <trip id="121" type="passenger" depart="385.81" from="CB" to="BD"/>
    <trip id="122" type="passenger" depart="389.00" from="AB" to="BD"/>
    <trip id="123" type="passenger" depart="392.19" from="AB" to="BC"/>
    <trip id="124" type="passenger" depart="395.38" from="CB" to="BA"/>
    <trip id="125" type="passenger" depart="398.56" from="BA" to="BD"/>
    <trip id="126" type="passenger" depart="401.75" from="AB" to="BC"/>
    <trip id="127" type="passenger" depart="404.94" from="DB" to="DB"/>
    <trip id="128" type="passenger" depart="408.13" from="AB" to="BA"/>
    <trip id="129" type="passenger" depart="411.32" from="AB" to="BD"/>
    <trip id="130" type="passenger" depart="414.51" from="DB" to="BD"/>
    <trip id="131" type="passenger" depart="417.69" from="BD" to="BA"/>
    <trip id="132" type="passenger" depart="420.88" from="DB" to="BD"/>
    <trip id="133" type="passenger" depart="424.07" from="CB" to="DB"/>
    <trip id="134" type="passenger" depart="427.26" from="CB" to="AB"/>
    <trip id="135" type="passenger" depart="430.45" from="DB" to="BA"/>
    <trip id="136" type="passenger" depart="433.64" from="CB" to="BD"/>
    <trip id="137" type="passenger" depart="436.83" from="AB" to="BA"/>
    <trip id="138" type="passenger" depart="440.01" from="AB" to="BC"/>
    <trip id="139" type="passenger" depart="443.20" from="AB" to="BC"/>
    <trip id="140" type="passenger" depart="446.39" from="DB" to="BA"/>
    <trip id="141" type="passenger" depart="449.58" from="CB" to="BA"/>
    <trip id="142" type="passenger" depart="452.77" from="CB" to="BD"/>
    <trip id="143" type="passenger" depart="455.96" from="DB" to="BA"/>
    <trip id="144" type="passenger" depart="459.15" from="CB" to="BA"/>
    <trip id="145" type="passenger" depart="462.33" from="AB" to="BD"/>
    <trip id="146" type="passenger" depart="465.52" from="CB" to="BA"/>
    <trip id="147" type="passenger" depart="468.71" from="DB" to="BC"/>
    <trip id="148" type="passenger" depart="471.90" from="CB" to="AB"/>
    <trip id="149" type="passenger" depart="475.09" from="AB" to="BD"/>
    <trip id="150" type="passenger" depart="478.28" from="DB" to="BC"/>
    <trip id="151" type="passenger" depart="481.47" from="DB" to="BC"/>
    <trip id="152" type="passenger" depart="484.65" from="AB" to="BA"/>
    <trip id="153" type="passenger" depart="487.84" from="BA" to="BD"/>
    <trip id="154" type="passenger" depart="491.03" from="DB" to="BD"/>
    <trip id="155" type="passenger" depart="494.22" from="DB" to="BA"/>
    <trip id="156" type="passenger" depart="497.41" from="AB" to="BA"/>
    <trip id="157" type="passenger" depart="500.60" from="DB" to="BD"/>
    <trip id="158" type="passenger" depart="503.78" from="CB" to="BC"/>
    <trip id="159" type="passenger" depart="506.97" from="AB" to="BD"/>
    <trip id="160" type="passenger" depart="510.16" from="DB" to="DB"/>
    <trip id="161" type="passenger" depart="513.35" from="DB" to="BD"/>
    <trip id="162" type="passenger" depart="516.54" from="AB" to="BD"/>
    <trip id="163" type="passenger" depart="519.73" from="BA" to="BD"/>
    <trip id="164" type="passenger" depart="522.92" from="DB" to="BD"/>
    <trip id="165" type="passenger" depart="526.10" from="DB" to="BA"/>
    <trip id="166" type="passenger" depart="529.29" from="DB" to="BA"/>
    <trip id="167" type="passenger" depart="532.48" from="DB" to="BD"/>
    <trip id="168" type="passenger" depart="535.67" from="AB" to="BD"/>
    <trip id="169" type="passenger" depart="538.86" from="CB" to="BA"/>
    <trip id="170" type="passenger" depart="542.05" from="DB" to="BA"/>
    <trip id="171" type="passenger" depart="545.24" from="AB" to="BA"/>
    <trip id="172" type="passenger" depart="548.42" from="BA" to="BD"/>
    <trip id="173" type="passenger" depart="551.61" from="DB" to="BA"/>
    <trip id="174" type="passenger" depart="554.80" from="CB" to="BC"/>
    <trip id="175" type="passenger" depart="557.99" from="DB" to="BC"/>
    <trip id="176" type="passenger" depart="561.18" from="DB" to="BA"/>
    <trip id="177" type="passenger" depart="564.37" from="DB" to="BA"/>
    <trip id="178" type="passenger" depart="567.55" from="DB" to="BA"/>
    <trip id="179" type="passenger" depart="570.74" from="AB" to="BC"/>
    <trip id="180" type="passenger" depart="573.93" from="DB" to="BA"/>
    <trip id="181" type="passenger" depart="577.12" from="CB" to="BC"/>
    <trip id="182" type="passenger" depart="580.31" from="BD" to="BC"/>
    <trip id="183" type="passenger" depart="583.50" from="AB" to="BD"/>
    <trip id="184" type="passenger" depart="586.69" from="AB" to="BD"/>
    <trip id="185" type="passenger" depart="589.87" from="CB" to="BD"/>
    <trip id="186" type="passenger" depart="593.06" from="DB" to="BD"/>
    <trip id="187" type="passenger" depart="596.25" from="BD" to="BA"/>
    <trip id="188" type="passenger" depart="599.44" from="CB" to="BA"/>
    <trip id="189" type="passenger" depart="602.63" from="BA" to="BD"/>
    <trip id="190" type="passenger" depart="605.82" from="DB" to="BA"/>
    <trip id="191" type="passenger" depart="609.01" from="BA" to="BC"/>
    <trip id="192" type="passenger" depart="612.19" from="CB" to="BA"/>
    <trip id="193" type="passenger" depart="615.38" from="AB" to="BC"/>
    <trip id="194" type="passenger" depart="618.57" from="DB" to="BD"/>
    <trip id="195" type="passenger" depart="621.76" from="DB" to="BC"/>
    <trip id="196" type="passenger" depart="624.95" from="AB" to="BC"/>
    <trip id="197" type="passenger" depart="628.14" from="AB" to="BA"/>
    <trip id="198" type="passenger" depart="631.33" from="CB" to="BC"/>
    <trip id="199" type="passenger" depart="634.51" from="CB" to="BC"/>
    <trip id="200" type="passenger" depart="637.70" from="CB" to="BA"/>
    <trip id="201" type="passenger" depart="640.89" from="CB" to="BD"/>
    <trip id="202" type="passenger" depart="644.08" from="DB" to="BA"/>
    <trip id="203" type="passenger" depart="647.27" from="AB" to="BC"/>
    <trip id="204" type="passenger" depart="650.46" from="CB" to="BC"/>
    <trip id="205" type="passenger" depart="653.64" from="DB" to="BD"/>
    <trip id="206" type="passenger" depart="656.83" from="CB" to="BA"/>
    <trip id="207" type="passenger" depart="660.02" from="AB" to="AB"/>
    <trip id="208" type="passenger" depart="663.21" from="AB" to="BC"/>
    <trip id="209" type="passenger" depart="666.40" from="DB" to="BA"/>
    <trip id="210" type="passenger" depart="669.59" from="CB" to="BC"/>
    <trip id="211" type="passenger" depart="672.78" from="AB" to="BD"/>
    <trip id="212" type="passenger" depart="675.96" from="CB" to="BA"/>
    <trip id="213" type="passenger" depart="679.15" from="CB" to="AB"/>
    <trip id="214" type="passenger" depart="682.34" from="DB" to="BD"/>
    <trip id="215" type="passenger" depart="685.53" from="AB" to="BC"/>
    <trip id="216" type="passenger" depart="688.72" from="AB" to="CB"/>
    <trip id="217" type="passenger" depart="691.91" from="CB" to="BA"/>
    <trip id="218" type="passenger" depart="695.10" from="AB" to="BD"/>
    <trip id="219" type="passenger" depart="698.28" from="CB" to="BD"/>
    <trip id="220" type="passenger" depart="701.47" from="CB" to="DB"/>
    <trip id="221" type="passenger" depart="704.66" from="CB" to="CB"/>
    <trip id="222" type="passenger" depart="707.85" from="DB" to="BC"/>
    <trip id="223" type="passenger" depart="711.04" from="DB" to="BC"/>
    <trip id="224" type="passenger" depart="714.23" from="DB" to="BC"/>
    <trip id="225" type="passenger" depart="717.41" from="DB" to="BD"/>
    <trip id="226" type="passenger" depart="720.60" from="CB" to="BA"/>
    <trip id="227" type="passenger" depart="723.79" from="AB" to="BD"/>
    <trip id="228" type="passenger" depart="726.98" from="DB" to="BC"/>
    <trip id="229" type="passenger" depart="730.17" from="CB" to="BA"/>
    <trip id="230" type="passenger" depart="733.36" from="AB" to="BA"/>
    <trip id="231" type="passenger" depart="736.55" from="AB" to="BA"/>
    <trip id="232" type="passenger" depart="739.73" from="CB" to="BA"/>
    <trip id="233" type="passenger" depart="742.92" from="AB" to="BD"/>
    <trip id="234" type="passenger" depart="746.11" from="DB" to="BA"/>
    <trip id="235" type="passenger" depart="749.30" from="CB" to="BC"/>
    <trip id="236" type="passenger" depart="752.49" from="CB" to="BA"/>
    <trip id="237" type="passenger" depart="755.68" from="CB" to="BD"/>
    <trip id="238" type="passenger" depart="758.87" from="CB" to="BD"/>
    <trip id="239" type="passenger" depart="762.05" from="DB" to="BD"/>
    <trip id="240" type="passenger" depart="765.24" from="BD" to="AB"/>
    <trip id="241" type="passenger" depart="768.43" from="BC" to="BD"/>
    <trip id="242" type="passenger" depart="771.62" from="DB" to="CB"/>
    <trip id="243" type="passenger" depart="774.81" from="CB" to="BD"/>
    <trip id="244" type="passenger" depart="778.00" from="CB" to="BC"/>
    <trip id="245" type="passenger" depart="781.19" from="AB" to="BA"/>
    <trip id="246" type="passenger" depart="784.37" from="CB" to="AB"/>
    <trip id="247" type="passenger" depart="787.56" from="BC" to="BD"/>
    <trip id="248" type="passenger" depart="790.75" from="CB" to="BA"/>
    <trip id="249" type="passenger" depart="793.94" from="CB" to="BA"/>
    <trip id="250" type="passenger" depart="797.13" from="CB" to="AB"/>
    <trip id="251" type="passenger" depart="800.32" from="CB" to="BC"/>
    <trip id="252" type="passenger" depart="803.50" from="AB" to="BD"/>
    <trip id="253" type="passenger" depart="806.69" from="AB" to="BC"/>
    <trip id="254" type="passenger" depart="809.88" from="AB" to="BC"/>
    <trip id="255" type="passenger" depart="813.07" from="AB" to="BA"/>
    <trip id="256" type="passenger" depart="816.26" from="DB" to="BC"/>
    <trip id="257" type="passenger" depart="819.45" from="DB" to="BD"/>
    <trip id="258" type="passenger" depart="822.64" from="AB" to="BA"/>
    <trip id="259" type="passenger" depart="825.82" from="AB" to="BC"/>
    <trip id="260" type="passenger" depart="829.01" from="DB" to="BC"/>
    <trip id="261" type="passenger" depart="832.20" from="CB" to="BD"/>
    <trip id="262" type="passenger" depart="835.39" from="CB" to="BD"/>
    <trip id="263" type="passenger" depart="838.58" from="DB" to="BA"/>
    <trip id="264" type="passenger" depart="841.77" from="AB" to="BA"/>
    <trip id="265" type="passenger" depart="844.96" from="AB" to="BD"/>
    <trip id="266" type="passenger" depart="848.14" from="CB" to="BA"/>
    <trip id="267" type="passenger" depart="851.33" from="DB" to="BD"/>
    <trip id="268" type="passenger" depart="854.52" from="AB" to="BC"/>
    <trip id="269" type="passenger" depart="857.71" from="DB" to="BA"/>
    <trip id="270" type="passenger" depart="860.90" from="DB" to="CB"/>
    <trip id="271" type="passenger" depart="864.09" from="AB" to="AB"/>
    <trip id="272" type="passenger" depart="867.27" from="BA" to="BD"/>
    <trip id="273" type="passenger" depart="870.46" from="DB" to="BC"/>
    <trip id="274" type="passenger" depart="873.65" from="DB" to="BA"/>
    <trip id="275" type="passenger" depart="876.84" from="CB" to="BC"/>
    <trip id="276" type="passenger" depart="880.03" from="AB" to="BD"/>
    <trip id="277" type="passenger" depart="883.22" from="DB" to="BC"/>
    <trip id="278" type="passenger" depart="886.41" from="AB" to="DB"/>
    <trip id="279" type="passenger" depart="889.59" from="DB" to="BC"/>
    <trip id="280" type="passenger" depart="892.78" from="CB" to="BC"/>
    <trip id="281" type="passenger" depart="895.97" from="CB" to="BC"/>
    <trip id="282" type="passenger" depart="899.16" from="DB" to="BD"/>
    <trip id="283" type="passenger" depart="902.35" from="AB" to="CB"/>
    <trip id="284" type="passenger" depart="905.54" from="CB" to="BD"/>
    <trip id="285" type="passenger" depart="908.73" from="DB" to="BC"/>
    <trip id="286" type="passenger" depart="911.91" from="DB" to="CB"/>
    <trip id="287" type="passenger" depart="915.10" from="AB" to="BD"/>
    <trip id="288" type="passenger" depart="918.29" from="CB" to="BC"/>
    <trip id="289" type="passenger" depart="921.48" from="CB" to="BD"/>
    <trip id="290" type="passenger" depart="924.67" from="AB" to="BD"/>
    <trip id="291" type="passenger" depart="927.86" from="DB" to="BA"/>
    <trip id="292" type="passenger" depart="931.05" from="DB" to="BA"/>
    <trip id="293" type="passenger" depart="934.23" from="CB" to="BC"/>
    <trip id="294" type="passenger" depart="937.42" from="BD" to="AB"/>
    <trip id="295" type="passenger" depart="940.61" from="DB" to="BA"/>
    <trip id="296" type="passenger" depart="943.80" from="AB" to="BD"/>
    <trip id="297" type="passenger" depart="946.99" from="BC" to="BD"/>
    <trip id="298" type="passenger" depart="950.18" from="DB" to="BA"/>
    <trip id="299" type="passenger" depart="953.36" from="AB" to="CB"/>
    <trip id="300" type="passenger" depart="956.55" from="AB" to="BD"/>
    <trip id="301" type="passenger" depart="959.74" from="CB" to="BD"/>
    <trip id="302" type="passenger" depart="962.93" from="CB" to="BD"/>
    <trip id="303" type="passenger" depart="966.12" from="CB" to="BD"/>
    <trip id="304" type="passenger" depart="969.31" from="AB" to="BA"/>
    <trip id="305" type="passenger" depart="972.50" from="CB" to="BA"/>
    <trip id="306" type="passenger" depart="975.68" from="CB" to="BC"/>
    <trip id="307" type="passenger" depart="978.87" from="CB" to="BC"/>
    <trip id="308" type="passenger" depart="982.06" from="DB" to="BA"/>
    <trip id="309" type="passenger" depart="985.25" from="DB" to="BA"/>
    <trip id="310" type="passenger" depart="988.44" from="AB" to="BA"/>
    <trip id="311" type="passenger" depart="991.63" from="AB" to="BA"/>
    <trip id="312" type="passenger" depart="994.82" from="CB" to="BD"/>
    <trip id="313" type="passenger" depart="998.00" from="AB" to="BA"/>
    <trip id="314" type="passenger" depart="1001.19" from="CB" to="BD"/>
    <trip id="315" type="passenger" depart="1004.38" from="DB" to="BC"/>
    <trip id="316" type="passenger" depart="1007.57" from="AB" to="BA"/>
    <trip id="317" type="passenger" depart="1010.76" from="AB" to="BA"/>
    <trip id="318" type="passenger" depart="1013.95" from="AB" to="AB"/>
    <trip id="319" type="passenger" depart="1017.13" from="CB" to="BA"/>
    <trip id="320" type="passenger" depart="1020.32" from="DB" to="BC"/>
    <trip id="321" type="passenger" depart="1023.51" from="DB" to="BA"/>
    <trip id="322" type="passenger" depart="1026.70" from="DB" to="BC"/>
    <trip id="323" type="passenger" depart="1029.89" from="DB" to="BC"/>
    <trip id="324" type="passenger" depart="1033.08" from="CB" to="BC"/>
    <trip id="325" type="passenger" depart="1036.27" from="AB" to="BA"/>
    <trip id="326" type="passenger" depart="1039.45" from="DB" to="BC"/>
    <trip id="327" type="passenger" depart="1042.64" from="DB" to="BC"/>
    <trip id="328" type="passenger" depart="1045.83" from="AB" to="BC"/>
    <trip id="329" type="passenger" depart="1049.02" from="AB" to="BA"/>
    <trip id="330" type="passenger" depart="1052.21" from="CB" to="BA"/>
    <trip id="331" type="passenger" depart="1055.40" from="DB" to="BA"/>
    <trip id="332" type="passenger" depart="1058.59" from="DB" to="BC"/>
    <trip id="333" type="passenger" depart="1061.77" from="DB" to="BA"/>
    <trip id="334" type="passenger" depart="1064.96" from="CB" to="BC"/>
    <trip id="335" type="passenger" depart="1068.15" from="CB" to="BD"/>
    <trip id="336" type="passenger" depart="1071.34" from="DB" to="BA"/>
    <trip id="337" type="passenger" depart="1074.53" from="CB" to="BC"/>
    <trip id="338" type="passenger" depart="1077.72" from="DB" to="CB"/>
    <trip id="339" type="passenger" depart="1080.91" from="AB" to="BA"/>
    <trip id="340" type="passenger" depart="1084.09" from="CB" to="BA"/>
    <trip id="341" type="passenger" depart="1087.28" from="AB" to="BA"/>
    <trip id="342" type="passenger" depart="1090.47" from="AB" to="BC"/>
    <trip id="343" type="passenger" depart="1093.66" from="CB" to="BA"/>
    <trip id="344" type="passenger" depart="1096.85" from="AB" to="BD"/>
    <trip id="345" type="passenger" depart="1100.04" from="DB" to="BC"/>
    <trip id="346" type="passenger" depart="1103.22" from="CB" to="BD"/>
    <trip id="347" type="passenger" depart="1106.41" from="DB" to="BC"/>
    <trip id="348" type="passenger" depart="1109.60" from="CB" to="BD"/>
    <trip id="349" type="passenger" depart="1112.79" from="CB" to="BC"/>
    <trip id="350" type="passenger" depart="1115.98" from="CB" to="BD"/>
    <trip id="351" type="passenger" depart="1119.17" from="DB" to="BA"/>
    <trip id="352" type="passenger" depart="1122.36" from="AB" to="BA"/>
    <trip id="353" type="passenger" depart="1125.54" from="DB" to="BC"/>
    <trip id="354" type="passenger" depart="1128.73" from="AB" to="BA"/>
    <trip id="355" type="passenger" depart="1131.92" from="CB" to="BD"/>
    <trip id="356" type="passenger" depart="1135.11" from="DB" to="BC"/>
    <trip id="357" type="passenger" depart="1138.30" from="CB" to="BA"/>
    <trip id="358" type="passenger" depart="1141.49" from="AB" to="BC"/>
    <trip id="359" type="passenger" depart="1144.68" from="BA" to="BA"/>
    <trip id="360" type="passenger" depart="1147.86" from="AB" to="CB"/>
    <trip id="361" type="passenger" depart="1151.05" from="DB" to="BC"/>
    <trip id="362" type="passenger" depart="1154.24" from="DB" to="DB"/>
    <trip id="363" type="passenger" depart="1157.43" from="CB" to="BA"/>
    <trip id="364" type="passenger" depart="1160.62" from="AB" to="BD"/>
    <trip id="365" type="passenger" depart="1163.81" from="CB" to="BD"/>
    <trip id="366" type="passenger" depart="1166.99" from="DB" to="BA"/>
    <trip id="367" type="passenger" depart="1170.18" from="CB" to="BC"/>
    <trip id="368" type="passenger" depart="1173.37" from="CB" to="BA"/>
    <trip id="369" type="passenger" depart="1176.56" from="BC" to="BA"/>
    <trip id="370" type="passenger" depart="1179.75" from="CB" to="BD"/>
    <trip id="371" type="passenger" depart="1182.94" from="BA" to="BD"/>
    <trip id="372" type="passenger" depart="1186.13" from="AB" to="CB"/>
    <trip id="373" type="passenger" depart="1189.31" from="DB" to="BC"/>
    <trip id="374" type="passenger" depart="1192.50" from="CB" to="BA"/>
    <trip id="375" type="passenger" depart="1195.69" from="BA" to="DB"/>
    <trip id="376" type="passenger" depart="1198.88" from="CB" to="BC"/>
    <trip id="377" type="passenger" depart="1202.07" from="DB" to="BD"/>
    <trip id="378" type="passenger" depart="1205.26" from="CB" to="BC"/>
    <trip id="379" type="passenger" depart="1208.45" from="AB" to="BC"/>
    <trip id="380" type="passenger" depart="1211.63" from="DB" to="BC"/>
    <trip id="381" type="passenger" depart="1214.82" from="DB" to="BA"/>
    <trip id="382" type="passenger" depart="1218.01" from="CB" to="BD"/>
    <trip id="383" type="passenger" depart="1221.20" from="CB" to="BD"/>
    <trip id="384" type="passenger" depart="1224.39" from="AB" to="DB"/>
    <trip id="385" type="passenger" depart="1227.58" from="CB" to="BA"/>
    <trip id="386" type="passenger" depart="1230.77" from="AB" to="BC"/>
    <trip id="387" type="passenger" depart="1233.95" from="CB" to="BA"/>
    <trip id="388" type="passenger" depart="1237.14" from="DB" to="BD"/>
    <trip id="389" type="passenger" depart="1240.33" from="CB" to="BA"/>
    <trip id="390" type="passenger" depart="1243.52" from="DB" to="BC"/>
    <trip id="391" type="passenger" depart="1246.71" from="DB" to="BC"/>
    <trip id="392" type="passenger" depart="1249.90" from="AB" to="BD"/>
    <trip id="393" type="passenger" depart="1253.08" from="DB" to="BA"/>
    <trip id="394" type="passenger" depart="1256.27" from="CB" to="BC"/>
    <trip id="395" type="passenger" depart="1259.46" from="DB" to="BC"/>