<?xml version="1.0" encoding="UTF-8"?>

<!-- generated on 2025-03-30 11:38:50.566845 by randomTrips.py v1_22_0+0002-63e50f52594
<configuration>
    <net-file value="traffic_dataset\scenario_8\network.net.xml"/>
    <output-trip-file value="traffic_dataset\scenario_8\routes.rou.xml"/>
    <vehicle-class value="passenger"/>
    <fringe-factor value="10"/>
    <allow-fringe value="True"/>
    <validate value="True"/>
    <period value="2.765493039472353"/>
</configuration>
-->

<!-- generated on 2025-03-30 11:38:50 by Eclipse SUMO duarouter Version 1.22.0
<duarouterConfiguration xmlns:xsi="http://www.w3.org/2001/XMLSchema-instance" xsi:noNamespaceSchemaLocation="http://sumo.dlr.de/xsd/duarouterConfiguration.xsd">

    <input>
        <net-file value="traffic_dataset\scenario_8\network.net.xml"/>
        <route-files value="traffic_dataset\scenario_8\routes.rou.xml"/>
    </input>

    <output>
        <output-file value="traffic_dataset\scenario_8\routes.rou.xml.tmp"/>
        <alternatives-output value="NUL"/>
        <write-trips value="true"/>
    </output>

    <time>
        <begin value="0"/>
        <end value="3600.0"/>
    </time>

    <report>
        <no-warnings value="true"/>
        <ignore-errors value="true"/>
        <no-step-log value="true"/>
    </report>

</duarouterConfiguration>
-->

<routes xmlns:xsi="http://www.w3.org/2001/XMLSchema-instance" xsi:noNamespaceSchemaLocation="http://sumo.dlr.de/xsd/routes_file.xsd">
    <vType id="passenger" vClass="passenger"/>
    <trip id="0" type="passenger" depart="0.00" from="DB" to="BA"/>
    <trip id="1" type="passenger" depart="2.77" from="BD" to="BA"/>
    <trip id="2" type="passenger" depart="5.53" from="DB" to="BD"/>
    <trip id="3" type="passenger" depart="8.30" from="EB" to="BA"/>
    <trip id="4" type="passenger" depart="11.06" from="CB" to="BA"/>
    <trip id="5" type="passenger" depart="13.83" from="AB" to="BD"/>
    <trip id="6" type="passenger" depart="16.59" from="AB" to="BA"/>
    <trip id="7" type="passenger" depart="19.36" from="DB" to="BD"/>
    <trip id="8" type="passenger" depart="22.12" from="AB" to="BD"/>
    <trip id="9" type="passenger" depart="24.89" from="EB" to="AB"/>
    <trip id="10" type="passenger" depart="27.65" from="EB" to="BD"/>
    <trip id="11" type="passenger" depart="30.42" from="CB" to="BA"/>
    <trip id="12" type="passenger" depart="33.19" from="EB" to="BC"/>
    <trip id="13" type="passenger" depart="35.95" from="AB" to="BA"/>
    <trip id="14" type="passenger" depart="38.72" from="EB" to="BD"/>
    <trip id="15" type="passenger" depart="41.48" from="EB" to="BE"/>
    <trip id="16" type="passenger" depart="44.25" from="CB" to="DB"/>
    <trip id="17" type="passenger" depart="47.01" from="CB" to="BD"/>
    <trip id="18" type="passenger" depart="49.78" from="EB" to="BD"/>
    <trip id="19" type="passenger" depart="52.54" from="EB" to="BD"/>
    <trip id="20" type="passenger" depart="55.31" from="DB" to="BA"/>
    <trip id="21" type="passenger" depart="58.08" from="BA" to="BC"/>
    <trip id="22" type="passenger" depart="60.84" from="AB" to="BA"/>
    <trip id="23" type="passenger" depart="63.61" from="AB" to="BC"/>
    <trip id="24" type="passenger" depart="66.37" from="DB" to="BC"/>
    <trip id="25" type="passenger" depart="69.14" from="CB" to="BA"/>
    <trip id="26" type="passenger" depart="71.90" from="BC" to="CB"/>
    <trip id="27" type="passenger" depart="74.67" from="DB" to="BD"/>
    <trip id="28" type="passenger" depart="77.43" from="AB" to="BE"/>
    <trip id="29" type="passenger" depart="80.20" from="AB" to="BC"/>
    <trip id="30" type="passenger" depart="82.96" from="EB" to="BD"/>
    <trip id="31" type="passenger" depart="85.73" from="DB" to="BD"/>
    <trip id="32" type="passenger" depart="88.50" from="EB" to="BE"/>
    <trip id="33" type="passenger" depart="91.26" from="BA" to="BA"/>
    <trip id="34" type="passenger" depart="94.03" from="BE" to="BC"/>
    <trip id="35" type="passenger" depart="96.79" from="AB" to="CB"/>
    <trip id="36" type="passenger" depart="99.56" from="EB" to="BC"/>
    <trip id="37" type="passenger" depart="102.32" from="DB" to="BC"/>
    <trip id="38" type="passenger" depart="105.09" from="EB" to="BC"/>
    <trip id="39" type="passenger" depart="107.85" from="BC" to="BA"/>
    <trip id="40" type="passenger" depart="110.62" from="DB" to="BC"/>
    <trip id="41" type="passenger" depart="113.39" from="DB" to="BE"/>
    <trip id="42" type="passenger" depart="116.15" from="CB" to="BA"/>
    <trip id="43" type="passenger" depart="118.92" from="EB" to="BD"/>
    <trip id="44" type="passenger" depart="121.68" from="AB" to="BA"/>
    <trip id="45" type="passenger" depart="124.45" from="AB" to="BD"/>
    <trip id="46" type="passenger" depart="127.21" from="EB" to="BC"/>
    <trip id="47" type="passenger" depart="129.98" from="AB" to="BC"/>
    <trip id="48" type="passenger" depart="132.74" from="EB" to="BD"/>
    <trip id="49" type="passenger" depart="135.51" from="EB" to="BE"/>
    <trip id="50" type="passenger" depart="138.27" from="AB" to="BE"/>
    <trip id="51" type="passenger" depart="141.04" from="DB" to="BD"/>
    <trip id="52" type="passenger" depart="143.81" from="BC" to="BD"/>
    <trip id="53" type="passenger" depart="146.57" from="AB" to="BC"/>
    <trip id="54" type="passenger" depart="149.34" from="CB" to="CB"/>
    <trip id="55" type="passenger" depart="152.10" from="EB" to="BC"/>
    <trip id="56" type="passenger" depart="154.87" from="CB" to="BA"/>
    <trip id="57" type="passenger" depart="157.63" from="EB" to="BE"/>
    <trip id="58" type="passenger" depart="160.40" from="BE" to="BD"/>
    <trip id="59" type="passenger" depart="163.16" from="DB" to="BA"/>
    <trip id="60" type="passenger" depart="165.93" from="DB" to="BD"/>
    <trip id="61" type="passenger" depart="168.70" from="EB" to="BD"/>
    <trip id="62" type="passenger" depart="171.46" from="AB" to="BC"/>
    <trip id="63" type="passenger" depart="174.23" from="AB" to="BE"/>
    <trip id="64" type="passenger" depart="176.99" from="EB" to="BE"/>
    <trip id="65" type="passenger" depart="179.76" from="BE" to="BA"/>
    <trip id="66" type="passenger" depart="182.52" from="EB" to="CB"/>
    <trip id="67" type="passenger" depart="185.29" from="AB" to="BD"/>
    <trip id="68" type="passenger" depart="188.05" from="AB" to="BE"/>
    <trip id="69" type="passenger" depart="190.82" from="DB" to="BA"/>
    <trip id="70" type="passenger" depart="193.58" from="CB" to="BD"/>
    <trip id="71" type="passenger" depart="196.35" from="BC" to="BE"/>
    <trip id="72" type="passenger" depart="199.12" from="CB" to="BA"/>
    <trip id="73" type="passenger" depart="201.88" from="CB" to="BE"/>
    <trip id="74" type="passenger" depart="204.65" from="AB" to="BC"/>
    <trip id="75" type="passenger" depart="207.41" from="EB" to="BD"/>
    <trip id="76" type="passenger" depart="210.18" from="CB" to="BD"/>
    <trip id="77" type="passenger" depart="212.94" from="AB" to="BA"/>
    <trip id="78" type="passenger" depart="215.71" from="CB" to="BD"/>
    <trip id="79" type="passenger" depart="218.47" from="BA" to="BA"/>
    <trip id="80" type="passenger" depart="221.24" from="AB" to="BD"/>
    <trip id="81" type="passenger" depart="224.00" from="BA" to="BE"/>
    <trip id="82" type="passenger" depart="226.77" from="EB" to="BA"/>
    <trip id="83" type="passenger" depart="229.54" from="BA" to="BD"/>
    <trip id="84" type="passenger" depart="232.30" from="AB" to="BA"/>
    <trip id="85" type="passenger" depart="235.07" from="EB" to="BD"/>
    <trip id="86" type="passenger" depart="237.83" from="CB" to="BE"/>
    <trip id="87" type="passenger" depart="240.60" from="EB" to="BA"/>
    <trip id="88" type="passenger" depart="243.36" from="AB" to="BC"/>
    <trip id="89" type="passenger" depart="246.13" from="CB" to="BC"/>
    <trip id="90" type="passenger" depart="248.89" from="DB" to="BD"/>
    <trip id="91" type="passenger" depart="251.66" from="EB" to="BA"/>
    <trip id="92" type="passenger" depart="254.43" from="CB" to="BC"/>
    <trip id="93" type="passenger" depart="257.19" from="EB" to="BA"/>
    <trip id="94" type="passenger" depart="259.96" from="AB" to="BC"/>
    <trip id="95" type="passenger" depart="262.72" from="CB" to="BC"/>
    <trip id="96" type="passenger" depart="265.49" from="BA" to="BE"/>
    <trip id="97" type="passenger" depart="268.25" from="CB" to="BE"/>
    <trip id="98" type="passenger" depart="271.02" from="DB" to="BA"/>
    <trip id="99" type="passenger" depart="273.78" from="EB" to="BE"/>
    <trip id="100" type="passenger" depart="276.55" from="EB" to="BE"/>
    <trip id="101" type="passenger" depart="279.31" from="EB" to="BA"/>
    <trip id="102" type="passenger" depart="282.08" from="CB" to="BA"/>
    <trip id="103" type="passenger" depart="284.85" from="CB" to="BA"/>
    <trip id="104" type="passenger" depart="287.61" from="CB" to="EB"/>
    <trip id="105" type="passenger" depart="290.38" from="BC" to="BE"/>
    <trip id="106" type="passenger" depart="293.14" from="CB" to="BC"/>
    <trip id="107" type="passenger" depart="295.91" from="EB" to="EB"/>
    <trip id="108" type="passenger" depart="298.67" from="DB" to="BE"/>
    <trip id="109" type="passenger" depart="301.44" from="AB" to="BC"/>
    <trip id="110" type="passenger" depart="304.20" from="EB" to="BD"/>
    <trip id="111" type="passenger" depart="306.97" from="CB" to="BE"/>
    <trip id="112" type="passenger" depart="309.74" from="AB" to="BD"/>
    <trip id="113" type="passenger" depart="312.50" from="CB" to="BE"/>
    <trip id="114" type="passenger" depart="315.27" from="AB" to="DB"/>
    <trip id="115" type="passenger" depart="318.03" from="AB" to="BA"/>
    <trip id="116" type="passenger" depart="320.80" from="DB" to="BD"/>
    <trip id="117" type="passenger" depart="323.56" from="BA" to="BA"/>
    <trip id="118" type="passenger" depart="326.33" from="EB" to="BA"/>
    <trip id="119" type="passenger" depart="329.09" from="DB" to="BD"/>
    <trip id="120" type="passenger" depart="331.86" from="CB" to="BD"/>
    <trip id="121" type="passenger" depart="334.62" from="CB" to="CB"/>
    <trip id="122" type="passenger" depart="337.39" from="AB" to="BE"/>
    <trip id="123" type="passenger" depart="340.16" from="BA" to="BC"/>
    <trip id="124" type="passenger" depart="342.92" from="DB" to="BC"/>
    <trip id="125" type="passenger" depart="345.69" from="BE" to="BE"/>
    <trip id="126" type="passenger" depart="348.45" from="AB" to="BC"/>
    <trip id="127" type="passenger" depart="351.22" from="EB" to="EB"/>
    <trip id="128" type="passenger" depart="353.98" from="AB" to="BA"/>
    <trip id="129" type="passenger" depart="356.75" from="BC" to="CB"/>
    <trip id="130" type="passenger" depart="359.51" from="EB" to="BE"/>
    <trip id="131" type="passenger" depart="362.28" from="CB" to="BA"/>
    <trip id="132" type="passenger" depart="365.05" from="EB" to="BD"/>
    <trip id="133" type="passenger" depart="367.81" from="DB" to="EB"/>
    <trip id="134" type="passenger" depart="370.58" from="DB" to="AB"/>
    <trip id="135" type="passenger" depart="373.34" from="EB" to="BC"/>
    <trip id="136" type="passenger" depart="376.11" from="DB" to="CB"/>
    <trip id="137" type="passenger" depart="378.87" from="AB" to="BA"/>
    <trip id="138" type="passenger" depart="381.64" from="AB" to="BD"/>
    <trip id="139" type="passenger" depart="384.40" from="BC" to="BD"/>
    <trip id="140" type="passenger" depart="387.17" from="DB" to="BA"/>
    <trip id="141" type="passenger" depart="389.93" from="DB" to="BC"/>
    <trip id="142" type="passenger" depart="392.70" from="CB" to="BE"/>
    <trip id="143" type="passenger" depart="395.47" from="EB" to="BA"/>
    <trip id="144" type="passenger" depart="398.23" from="CB" to="BC"/>
    <trip id="145" type="passenger" depart="401.00" from="AB" to="BE"/>
    <trip id="146" type="passenger" depart="403.76" from="DB" to="BC"/>
    <trip id="147" type="passenger" depart="406.53" from="DB" to="BD"/>
    <trip id="148" type="passenger" depart="409.29" from="CB" to="AB"/>
    <trip id="149" type="passenger" depart="412.06" from="AB" to="BE"/>
    <trip id="150" type="passenger" depart="414.82" from="EB" to="BD"/>
    <trip id="151" type="passenger" depart="417.59" from="EB" to="BD"/>
    <trip id="152" type="passenger" depart="420.35" from="AB" to="BA"/>
    <trip id="153" type="passenger" depart="423.12" from="BE" to="BE"/>
    <trip id="154" type="passenger" depart="425.89" from="EB" to="BE"/>
    <trip id="155" type="passenger" depart="428.65" from="EB" to="BA"/>
    <trip id="156" type="passenger" depart="431.42" from="BA" to="BA"/>
    <trip id="157" type="passenger" depart="434.18" from="EB" to="BE"/>
    <trip id="158" type="passenger" depart="436.95" from="CB" to="BD"/>
    <trip id="159" type="passenger" depart="439.71" from="AB" to="BE"/>
    <trip id="160" type="passenger" depart="442.48" from="EB" to="DB"/>
    <trip id="161" type="passenger" depart="445.24" from="EB" to="BE"/>
    <trip id="162" type="passenger" depart="448.01" from="AB" to="BE"/>
    <trip id="163" type="passenger" depart="450.78" from="CB" to="BE"/>
    <trip id="164" type="passenger" depart="453.54" from="EB" to="BE"/>
    <trip id="165" type="passenger" depart="456.31" from="EB" to="BC"/>
    <trip id="166" type="passenger" depart="459.07" from="EB" to="BA"/>
    <trip id="167" type="passenger" depart="461.84" from="EB" to="BE"/>
    <trip id="168" type="passenger" depart="464.60" from="AB" to="BE"/>
    <trip id="169" type="passenger" depart="467.37" from="CB" to="BC"/>
    <trip id="170" type="passenger" depart="470.13" from="EB" to="BA"/>
    <trip id="171" type="passenger" depart="472.90" from="AB" to="BA"/>
    <trip id="172" type="passenger" depart="475.66" from="CB" to="BE"/>
    <trip id="173" type="passenger" depart="478.43" from="EB" to="BC"/>
    <trip id="174" type="passenger" depart="481.20" from="DB" to="BC"/>
    <trip id="175" type="passenger" depart="483.96" from="EB" to="BD"/>
    <trip id="176" type="passenger" depart="486.73" from="EB" to="BA"/>
    <trip id="177" type="passenger" depart="489.49" from="EB" to="BA"/>
    <trip id="178" type="passenger" depart="492.26" from="EB" to="BC"/>
    <trip id="179" type="passenger" depart="495.02" from="AB" to="BC"/>
    <trip id="180" type="passenger" depart="497.79" from="DB" to="BC"/>
    <trip id="181" type="passenger" depart="500.55" from="DB" to="BD"/>
    <trip id="182" type="passenger" depart="503.32" from="CB" to="BD"/>
    <trip id="183" type="passenger" depart="506.09" from="BC" to="BE"/>
    <trip id="184" type="passenger" depart="508.85" from="AB" to="BE"/>
    <trip id="185" type="passenger" depart="511.62" from="CB" to="BE"/>
    <trip id="186" type="passenger" depart="514.38" from="DB" to="BD"/>
    <trip id="187" type="passenger" depart="517.15" from="CB" to="BA"/>
    <trip id="188" type="passenger" depart="519.91" from="DB" to="BC"/>
    <trip id="189" type="passenger" depart="522.68" from="BE" to="BE"/>
    <trip id="190" type="passenger" depart="525.44" from="DB" to="BC"/>
    <trip id="191" type="passenger" depart="528.21" from="BE" to="BC"/>
    <trip id="192" type="passenger" depart="530.97" from="CB" to="BC"/>
    <trip id="193" type="passenger" depart="533.74" from="AB" to="BC"/>
    <trip id="194" type="passenger" depart="536.51" from="EB" to="BD"/>
    <trip id="195" type="passenger" depart="539.27" from="EB" to="BD"/>
    <trip id="196" type="passenger" depart="542.04" from="BE" to="BD"/>
    <trip id="197" type="passenger" depart="544.80" from="AB" to="BC"/>
    <trip id="198" type="passenger" depart="547.57" from="CB" to="BD"/>
    <trip id="199" type="passenger" depart="550.33" from="DB" to="BC"/>
    <trip id="200" type="passenger" depart="553.10" from="CB" to="BA"/>
    <trip id="201" type="passenger" depart="555.86" from="CB" to="BE"/>
    <trip id="202" type="passenger" depart="558.63" from="EB" to="BA"/>
    <trip id="203" type="passenger" depart="561.40" from="AB" to="BD"/>
    <trip id="204" type="passenger" depart="564.16" from="DB" to="BC"/>
    <trip id="205" type="passenger" depart="566.93" from="EB" to="BE"/>
    <trip id="206" type="passenger" depart="569.69" from="DB" to="BA"/>
    <trip id="207" type="passenger" depart="572.46" from="AB" to="BA"/>
    <trip id="208" type="passenger" depart="575.22" from="BA" to="BC"/>
    <trip id="209" type="passenger" depart="577.99" from="EB" to="BA"/>
    <trip id="210" type="passenger" depart="580.75" from="CB" to="BD"/>
    <trip id="211" type="passenger" depart="583.52" from="AB" to="BD"/>
    <trip id="212" type="passenger" depart="586.28" from="CB" to="BA"/>
    <trip id="213" type="passenger" depart="589.05" from="DB" to="AB"/>
    <trip id="214" type="passenger" depart="591.82" from="DB" to="BE"/>
    <trip id="215" type="passenger" depart="594.58" from="AB" to="BC"/>
    <trip id="216" type="passenger" depart="597.35" from="AB" to="DB"/>
    <trip id="217" type="passenger" depart="600.11" from="CB" to="BA"/>
    <trip id="218" type="passenger" depart="602.88" from="BA" to="BE"/>
    <trip id="219" type="passenger" depart="605.64" from="CB" to="BE"/>
    <trip id="220" type="passenger" depart="608.41" from="DB" to="EB"/>
    <trip id="221" type="passenger" depart="611.17" from="DB" to="CB"/>
    <trip id="222" type="passenger" depart="613.94" from="EB" to="BD"/>
    <trip id="223" type="passenger" depart="616.70" from="DB" to="BD"/>
    <trip id="224" type="passenger" depart="619.47" from="EB" to="BD"/>
    <trip id="225" type="passenger" depart="622.24" from="EB" to="BE"/>
    <trip id="226" type="passenger" depart="625.00" from="CB" to="BC"/>
    <trip id="227" type="passenger" depart="627.77" from="BA" to="BD"/>
    <trip id="228" type="passenger" depart="630.53" from="DB" to="BD"/>
    <trip id="229" type="passenger" depart="633.30" from="DB" to="BC"/>
    <trip id="230" type="passenger" depart="636.06" from="AB" to="BC"/>
    <trip id="231" type="passenger" depart="638.83" from="BC" to="BC"/>
    <trip id="232" type="passenger" depart="641.59" from="CB" to="BA"/>
    <trip id="233" type="passenger" depart="644.36" from="BA" to="BD"/>
    <trip id="234" type="passenger" depart="647.13" from="DB" to="BA"/>
    <trip id="235" type="passenger" depart="649.89" from="CB" to="BD"/>
    <trip id="236" type="passenger" depart="652.66" from="CB" to="BA"/>
    <trip id="237" type="passenger" depart="655.42" from="CB" to="BE"/>
    <trip id="238" type="passenger" depart="658.19" from="DB" to="BD"/>
    <trip id="239" type="passenger" depart="660.95" from="EB" to="BE"/>
    <trip id="240" type="passenger" depart="663.72" from="CB" to="AB"/>
    <trip id="241" type="passenger" depart="666.48" from="CB" to="BE"/>
    <trip id="242" type="passenger" depart="669.25" from="EB" to="CB"/>
    <trip id="243" type="passenger" depart="672.01" from="CB" to="BE"/>
    <trip id="244" type="passenger" depart="674.78" from="DB" to="BD"/>
    <trip id="245" type="passenger" depart="677.55" from="AB" to="BA"/>
    <trip id="246" type="passenger" depart="680.31" from="CB" to="BA"/>
    <trip id="247" type="passenger" depart="683.08" from="CB" to="BD"/>
    <trip id="248" type="passenger" depart="685.84" from="CB" to="BA"/>
    <trip id="249" type="passenger" depart="688.61" from="CB" to="BA"/>
    <trip id="250" type="passenger" depart="691.37" from="DB" to="BA"/>
    <trip id="251" type="passenger" depart="694.14" from="CB" to="BD"/>
    <trip id="252" type="passenger" depart="696.90" from="AB" to="BD"/>
    <trip id="253" type="passenger" depart="699.67" from="AB" to="BC"/>
    <trip id="254" type="passenger" depart="702.44" from="AB" to="BC"/>
    <trip id="255" type="passenger" depart="705.20" from="AB" to="BC"/>
    <trip id="256" type="passenger" depart="707.97" from="DB" to="BC"/>
    <trip id="257" type="passenger" depart="710.73" from="DB" to="BE"/>
    <trip id="258" type="passenger" depart="713.50" from="BC" to="BA"/>
    <trip id="259" type="passenger" depart="716.26" from="AB" to="BD"/>
    <trip id="260" type="passenger" depart="719.03" from="EB" to="BC"/>
    <trip id="261" type="passenger" depart="721.79" from="DB" to="BE"/>
    <trip id="262" type="passenger" depart="724.56" from="DB" to="BE"/>
    <trip id="263" type="passenger" depart="727.32" from="EB" to="BA"/>
    <trip id="264" type="passenger" depart="730.09" from="AB" to="BA"/>
    <trip id="265" type="passenger" depart="732.86" from="AB" to="BD"/>
    <trip id="266" type="passenger" depart="735.62" from="DB" to="BA"/>
    <trip id="267" type="passenger" depart="738.39" from="DB" to="BE"/>
    <trip id="268" type="passenger" depart="741.15" from="AB" to="BD"/>
    <trip id="269" type="passenger" depart="743.92" from="DB" to="BA"/>
    <trip id="270" type="passenger" depart="746.68" from="EB" to="DB"/>
    <trip id="271" type="passenger" depart="749.45" from="AB" to="BA"/>
    <trip id="272" type="passenger" depart="752.21" from="BE" to="BD"/>
    <trip id="273" type="passenger" depart="754.98" from="EB" to="BC"/>
    <trip id="274" type="passenger" depart="757.75" from="DB" to="BA"/>
    <trip id="275" type="passenger" depart="760.51" from="DB" to="BD"/>
    <trip id="276" type="passenger" depart="763.28" from="AB" to="BE"/>
    <trip id="277" type="passenger" depart="766.04" from="EB" to="BD"/>
    <trip id="278" type="passenger" depart="768.81" from="AB" to="EB"/>
    <trip id="279" type="passenger" depart="771.57" from="EB" to="BC"/>
    <trip id="280" type="passenger" depart="774.34" from="CB" to="BC"/>
    <trip id="281" type="passenger" depart="777.10" from="CB" to="BC"/>
    <trip id="282" type="passenger" depart="779.87" from="EB" to="BE"/>
    <trip id="283" type="passenger" depart="782.63" from="AB" to="DB"/>
    <trip id="284" type="passenger" depart="785.40" from="DB" to="BE"/>
    <trip id="285" type="passenger" depart="788.17" from="DB" to="BC"/>
    <trip id="286" type="passenger" depart="790.93" from="DB" to="DB"/>
    <trip id="287" type="passenger" depart="793.70" from="BC" to="BE"/>
    <trip id="288" type="passenger" depart="796.46" from="CB" to="BD"/>
    <trip id="289" type="passenger" depart="799.23" from="CB" to="BE"/>
    <trip id="290" type="passenger" depart="801.99" from="BC" to="BE"/>
    <trip id="291" type="passenger" depart="804.76" from="EB" to="BA"/>
    <trip id="292" type="passenger" depart="807.52" from="EB" to="BA"/>
    <trip id="293" type="passenger" depart="810.29" from="CB" to="BD"/>
    <trip id="294" type="passenger" depart="813.05" from="CB" to="BA"/>
    <trip id="295" type="passenger" depart="815.82" from="EB" to="BA"/>
    <trip id="296" type="passenger" depart="818.59" from="AB" to="BE"/>
    <trip id="297" type="passenger" depart="821.35" from="CB" to="BE"/>
    <trip id="298" type="passenger" depart="824.12" from="DB" to="BC"/>
    <trip id="299" type="passenger" depart="826.88" from="AB" to="CB"/>
    <trip id="300" type="passenger" depart="829.65" from="AB" to="BE"/>
    <trip id="301" type="passenger" depart="832.41" from="CB" to="BE"/>
    <trip id="302" type="passenger" depart="835.18" from="DB" to="BD"/>
    <trip id="303" type="passenger" depart="837.94" from="CB" to="BE"/>
    <trip id="304" type="passenger" depart="840.71" from="AB" to="BA"/>
    <trip id="305" type="passenger" depart="843.48" from="DB" to="BC"/>
    <trip id="306" type="passenger" depart="846.24" from="DB" to="BC"/>
    <trip id="307" type="passenger" depart="849.01" from="CB" to="BC"/>
    <trip id="308" type="passenger" depart="851.77" from="DB" to="BC"/>
    <trip id="309" type="passenger" depart="854.54" from="DB" to="BC"/>
    <trip id="310" type="passenger" depart="857.30" from="BC" to="BA"/>
    <trip id="311" type="passenger" depart="860.07" from="AB" to="BA"/>
    <trip id="312" type="passenger" depart="862.83" from="CB" to="BE"/>
    <trip id="313" type="passenger" depart="865.60" from="AB" to="BA"/>
    <trip id="314" type="passenger" depart="868.36" from="CB" to="BE"/>
    <trip id="315" type="passenger" depart="871.13" from="EB" to="BD"/>
    <trip id="316" type="passenger" depart="873.90" from="BD" to="BA"/>
    <trip id="317" type="passenger" depart="876.66" from="AB" to="BA"/>
    <trip id="318" type="passenger" depart="879.43" from="AB" to="AB"/>
    <trip id="319" type="passenger" depart="882.19" from="CB" to="BC"/>
    <trip id="320" type="passenger" depart="884.96" from="EB" to="BD"/>
    <trip id="321" type="passenger" depart="887.72" from="DB" to="BA"/>
    <trip id="322" type="passenger" depart="890.49" from="EB" to="BD"/>
    <trip id="323" type="passenger" depart="893.25" from="EB" to="BD"/>
    <trip id="324" type="passenger" depart="896.02" from="CB" to="BC"/>
    <trip id="325" type="passenger" depart="898.79" from="AB" to="BA"/>
    <trip id="326" type="passenger" depart="901.55" from="EB" to="BD"/>
    <trip id="327" type="passenger" depart="904.32" from="EB" to="BC"/>
    <trip id="328" type="passenger" depart="907.08" from="AB" to="BD"/>
    <trip id="329" type="passenger" depart="909.85" from="AB" to="BA"/>
    <trip id="330" type="passenger" depart="912.61" from="DB" to="BC"/>
    <trip id="331" type="passenger" depart="915.38" from="EB" to="BA"/>
    <trip id="332" type="passenger" depart="918.14" from="DB" to="BD"/>
    <trip id="333" type="passenger" depart="920.91" from="EB" to="BA"/>
    <trip id="334" type="passenger" depart="923.67" from="CB" to="BC"/>
    <trip id="335" type="passenger" depart="926.44" from="CB" to="BE"/>
    <trip id="336" type="passenger" depart="929.21" from="EB" to="BC"/>
    <trip id="337" type="passenger" depart="931.97" from="DB" to="BD"/>
    <trip id="338" type="passenger" depart="934.74" from="DB" to="CB"/>
    <trip id="339" type="passenger" depart="937.50" from="AB" to="BA"/>
    <trip id="340" type="passenger" depart="940.27" from="DB" to="BA"/>
    <trip id="341" type="passenger" depart="943.03" from="AB" to="BA"/>
    <trip id="342" type="passenger" depart="945.80" from="AB" to="BC"/>
    <trip id="343" type="passenger" depart="948.56" from="DB" to="BC"/>
    <trip id="344" type="passenger" depart="951.33" from="BA" to="BE"/>
    <trip id="345" type="passenger" depart="954.10" from="DB" to="BC"/>
    <trip id="346" type="passenger" depart="956.86" from="DB" to="BE"/>
    <trip id="347" type="passenger" depart="959.63" from="EB" to="BD"/>
    <trip id="348" type="passenger" depart="962.39" from="DB" to="CB"/>
    <trip id="349" type="passenger" depart="965.16" from="CB" to="BD"/>
    <trip id="350" type="passenger" depart="967.92" from="DB" to="BE"/>
    <trip id="351" type="passenger" depart="970.69" from="EB" to="BA"/>
    <trip id="352" type="passenger" depart="973.45" from="AB" to="BC"/>
    <trip id="353" type="passenger" depart="976.22" from="DB" to="BD"/>
    <trip id="354" type="passenger" depart="978.98" from="BD" to="BA"/>
    <trip id="355" type="passenger" depart="981.75" from="DB" to="BD"/>
    <trip id="356" type="passenger" depart="984.52" from="EB" to="BD"/>
    <trip id="357" type="passenger" depart="987.28" from="CB" to="BA"/>
    <trip id="358" type="passenger" depart="990.05" from="AB" to="BC"/>
    <trip id="359" type="passenger" depart="992.81" from="CB" to="BC"/>
    <trip id="360" type="passenger" depart="995.58" from="AB" to="DB"/>
    <trip id="361" type="passenger" depart="998.34" from="EB" to="BD"/>
    <trip id="362" type="passenger" depart="1001.11" from="EB" to="EB"/>
    <trip id="363" type="passenger" depart="1003.87" from="DB" to="BC"/>
    <trip id="364" type="passenger" depart="1006.64" from="AB" to="BE"/>
    <trip id="365" type="passenger" depart="1009.40" from="CB" to="BD"/>
    <trip id="366" type="passenger" depart="1012.17" from="EB" to="BA"/>
    <trip id="367" type="passenger" depart="1014.94" from="DB" to="BD"/>
    <trip id="368" type="passenger" depart="1017.70" from="CB" to="BA"/>
    <trip id="369" type="passenger" depart="1020.47" from="CB" to="BC"/>
    <trip id="370" type="passenger" depart="1023.23" from="DB" to="BE"/>
    <trip id="371" type="passenger" depart="1026.00" from="CB" to="BD"/>
    <trip id="372" type="passenger" depart="1028.76" from="BD" to="CB"/>
    <trip id="373" type="passenger" depart="1031.53" from="EB" to="BD"/>
    <trip id="374" type="passenger" depart="1034.29" from="CB" to="BC"/>
    <trip id="375" type="passenger" depart="1037.06" from="CB" to="DB"/>
    <trip id="376" type="passenger" depart="1039.83" from="CB" to="BD"/>
    <trip id="377" type="passenger" depart="1042.59" from="EB" to="BD"/>
    <trip id="378" type="passenger" depart="1045.36" from="CB" to="BC"/>
    <trip id="379" type="passenger" depart="1048.12" from="AB" to="BC"/>
    <trip id="380" type="passenger" depart="1050.89" from="DB" to="BD"/>
    <trip id="381" type="passenger" depart="1053.65" from="DB" to="BA"/>
    <trip id="382" type="passenger" depart="1056.42" from="DB" to="BE"/>
    <trip id="383" type="passenger" depart="1059.18" from="CB" to="BD"/>
    <trip id="384" type="passenger" depart="1061.95" from="AB" to="DB"/>
    <trip id="385" type="passenger" depart="1064.71" from="DB" to="BA"/>
    <trip id="386" type="passenger" depart="1067.48" from="AB" to="BD"/>
    <trip id="387" type="passenger" depart="1070.25" from="DB" to="BA"/>
    <trip id="388" type="passenger" depart="1073.01" from="EB" to="BE"/>
    <trip id="389" type="passenger" depart="1075.78" from="CB" to="BA"/>
    <trip id="390" type="passenger" depart="1078.54" from="EB" to="BD"/>
    <trip id="391" type="passenger" depart="1081.31" from="DB" to="BD"/>
    <trip id="392" type="passenger" depart="1084.07" from="BD" to="BE"/>
    <trip id="393" type="passenger" depart="1086.84" from="EB" to="BA"/>
    <trip id="394" type="passenger" depart="1089.60" from="DB" to="BC"/>
    <trip id="395" type="passenger" depart="1092.37" from="EB" to="BD"/>
    <trip id="396" type="passenger" depart="1095.14" from="EB" to="BE"/>