<?xml version="1.0" encoding="UTF-8"?>

<!-- generated on 2025-03-30 11:38:48.037180 by randomTrips.py v1_22_0+0002-63e50f52594
<configuration>
    <net-file value="traffic_dataset\scenario_5\network.net.xml"/>
    <output-trip-file value="traffic_dataset\scenario_5\routes.rou.xml"/>
    <vehicle-class value="passenger"/>
    <fringe-factor value="10"/>
    <allow-fringe value="True"/>
    <validate value="True"/>
    <period value="3.3590140317145307"/>
</configuration>
-->

<!-- generated on 2025-03-30 11:38:47 by Eclipse SUMO duarouter Version 1.22.0
<duarouterConfiguration xmlns:xsi="http://www.w3.org/2001/XMLSchema-instance" xsi:noNamespaceSchemaLocation="http://sumo.dlr.de/xsd/duarouterConfiguration.xsd">

    <input>
        <net-file value="traffic_dataset\scenario_5\network.net.xml"/>
        <route-files value="traffic_dataset\scenario_5\routes.rou.xml"/>
    </input>

    <output>
        <output-file value="traffic_dataset\scenario_5\routes.rou.xml.tmp"/>
        <alternatives-output value="NUL"/>
        <write-trips value="true"/>
    </output>

    <time>
        <begin value="0"/>
        <end value="3600.0"/>
    </time>

    <report>
        <no-warnings value="true"/>
        <ignore-errors value="true"/>
        <no-step-log value="true"/>
    </report>

</duarouterConfiguration>
-->

<routes xmlns:xsi="http://www.w3.org/2001/XMLSchema-instance" xsi:noNamespaceSchemaLocation="http://sumo.dlr.de/xsd/routes_file.xsd">
    <vType id="passenger" vClass="passenger"/>
    <trip id="0" type="passenger" depart="0.00" from="CB" to="AB"/>
    <trip id="1" type="passenger" depart="3.36" from="AB" to="BA"/>
    <trip id="2" type="passenger" depart="6.72" from="DB" to="BD"/>
    <trip id="3" type="passenger" depart="10.08" from="DB" to="BA"/>
    <trip id="4" type="passenger" depart="13.44" from="CB" to="AB"/>
    <trip id="5" type="passenger" depart="16.80" from="AB" to="BC"/>
    <trip id="6" type="passenger" depart="20.15" from="AB" to="BA"/>
    <trip id="7" type="passenger" depart="23.51" from="CB" to="BC"/>
    <trip id="8" type="passenger" depart="26.87" from="AB" to="BC"/>
    <trip id="9" type="passenger" depart="30.23" from="DB" to="AB"/>
    <trip id="10" type="passenger" depart="33.59" from="DB" to="BD"/>
    <trip id="11" type="passenger" depart="36.95" from="BC" to="BA"/>
    <trip id="12" type="passenger" depart="40.31" from="DB" to="BC"/>
    <trip id="13" type="passenger" depart="43.67" from="AB" to="BA"/>
    <trip id="14" type="passenger" depart="47.03" from="DB" to="BC"/>
    <trip id="15" type="passenger" depart="50.39" from="DB" to="BD"/>
    <trip id="16" type="passenger" depart="53.74" from="CB" to="DB"/>
    <trip id="17" type="passenger" depart="57.10" from="BD" to="BC"/>
    <trip id="18" type="passenger" depart="60.46" from="DB" to="BC"/>
    <trip id="19" type="passenger" depart="63.82" from="DB" to="BC"/>
    <trip id="20" type="passenger" depart="67.18" from="DB" to="BA"/>
    <trip id="21" type="passenger" depart="70.54" from="AB" to="BA"/>
    <trip id="22" type="passenger" depart="73.90" from="AB" to="BA"/>
    <trip id="23" type="passenger" depart="77.26" from="AB" to="BA"/>
    <trip id="24" type="passenger" depart="80.62" from="CB" to="BC"/>
    <trip id="25" type="passenger" depart="83.98" from="BD" to="BA"/>
    <trip id="26" type="passenger" depart="87.33" from="AB" to="BD"/>
    <trip id="27" type="passenger" depart="90.69" from="CB" to="BC"/>
    <trip id="28" type="passenger" depart="94.05" from="AB" to="BD"/>
    <trip id="29" type="passenger" depart="97.41" from="AB" to="BC"/>
    <trip id="30" type="passenger" depart="100.77" from="DB" to="BD"/>
    <trip id="31" type="passenger" depart="104.13" from="CB" to="BD"/>
    <trip id="32" type="passenger" depart="107.49" from="DB" to="BD"/>
    <trip id="33" type="passenger" depart="110.85" from="AB" to="BA"/>
    <trip id="34" type="passenger" depart="114.21" from="BA" to="BA"/>
    <trip id="35" type="passenger" depart="117.57" from="AB" to="CB"/>
    <trip id="36" type="passenger" depart="120.92" from="DB" to="BA"/>
    <trip id="37" type="passenger" depart="124.28" from="CB" to="BC"/>
    <trip id="38" type="passenger" depart="127.64" from="DB" to="BC"/>
    <trip id="39" type="passenger" depart="131.00" from="AB" to="BA"/>
    <trip id="40" type="passenger" depart="134.36" from="CB" to="BA"/>
    <trip id="41" type="passenger" depart="137.72" from="CB" to="BD"/>
    <trip id="42" type="passenger" depart="141.08" from="CB" to="BA"/>
    <trip id="43" type="passenger" depart="144.44" from="DB" to="BC"/>
    <trip id="44" type="passenger" depart="147.80" from="AB" to="BA"/>
    <trip id="45" type="passenger" depart="151.16" from="AB" to="BC"/>
    <trip id="46" type="passenger" depart="154.51" from="DB" to="BC"/>
    <trip id="47" type="passenger" depart="157.87" from="AB" to="BC"/>
    <trip id="48" type="passenger" depart="161.23" from="DB" to="BC"/>
    <trip id="49" type="passenger" depart="164.59" from="DB" to="BD"/>
    <trip id="50" type="passenger" depart="167.95" from="AB" to="BD"/>
    <trip id="51" type="passenger" depart="171.31" from="CB" to="BC"/>
    <trip id="52" type="passenger" depart="174.67" from="AB" to="BD"/>
    <trip id="53" type="passenger" depart="178.03" from="AB" to="BC"/>
    <trip id="54" type="passenger" depart="181.39" from="CB" to="CB"/>
    <trip id="55" type="passenger" depart="184.75" from="DB" to="BA"/>
    <trip id="56" type="passenger" depart="188.10" from="CB" to="BA"/>
    <trip id="57" type="passenger" depart="191.46" from="DB" to="BD"/>
    <trip id="58" type="passenger" depart="194.82" from="AB" to="BD"/>
    <trip id="59" type="passenger" depart="198.18" from="CB" to="BA"/>
    <trip id="60" type="passenger" depart="201.54" from="DB" to="BC"/>
    <trip id="61" type="passenger" depart="204.90" from="DB" to="BC"/>
    <trip id="62" type="passenger" depart="208.26" from="AB" to="BA"/>
    <trip id="63" type="passenger" depart="211.62" from="AB" to="BD"/>
    <trip id="64" type="passenger" depart="214.98" from="DB" to="BD"/>
    <trip id="65" type="passenger" depart="218.34" from="BA" to="BA"/>
    <trip id="66" type="passenger" depart="221.69" from="DB" to="CB"/>
    <trip id="67" type="passenger" depart="225.05" from="AB" to="BC"/>
    <trip id="68" type="passenger" depart="228.41" from="AB" to="BD"/>
    <trip id="69" type="passenger" depart="231.77" from="DB" to="BA"/>
    <trip id="70" type="passenger" depart="235.13" from="CB" to="BC"/>
    <trip id="71" type="passenger" depart="238.49" from="AB" to="BD"/>
    <trip id="72" type="passenger" depart="241.85" from="CB" to="BA"/>
    <trip id="73" type="passenger" depart="245.21" from="CB" to="BD"/>
    <trip id="74" type="passenger" depart="248.57" from="AB" to="BA"/>
    <trip id="75" type="passenger" depart="251.93" from="DB" to="BD"/>
    <trip id="76" type="passenger" depart="255.29" from="CB" to="BC"/>
    <trip id="77" type="passenger" depart="258.64" from="AB" to="BA"/>
    <trip id="78" type="passenger" depart="262.00" from="BC" to="BC"/>
    <trip id="79" type="passenger" depart="265.36" from="AB" to="BA"/>
    <trip id="80" type="passenger" depart="268.72" from="AB" to="BC"/>
    <trip id="81" type="passenger" depart="272.08" from="AB" to="BD"/>
    <trip id="82" type="passenger" depart="275.44" from="DB" to="BA"/>
    <trip id="83" type="passenger" depart="278.80" from="AB" to="BD"/>
    <trip id="84" type="passenger" depart="282.16" from="AB" to="BA"/>
    <trip id="85" type="passenger" depart="285.52" from="DB" to="BC"/>
    <trip id="86" type="passenger" depart="288.88" from="CB" to="BD"/>
    <trip id="87" type="passenger" depart="292.23" from="DB" to="BA"/>
    <trip id="88" type="passenger" depart="295.59" from="AB" to="BC"/>
    <trip id="89" type="passenger" depart="298.95" from="CB" to="BC"/>
    <trip id="90" type="passenger" depart="302.31" from="DB" to="BD"/>
    <trip id="91" type="passenger" depart="305.67" from="DB" to="BA"/>
    <trip id="92" type="passenger" depart="309.03" from="CB" to="BC"/>
    <trip id="93" type="passenger" depart="312.39" from="DB" to="BA"/>
    <trip id="94" type="passenger" depart="315.75" from="AB" to="BC"/>
    <trip id="95" type="passenger" depart="319.11" from="CB" to="BA"/>
    <trip id="96" type="passenger" depart="322.47" from="AB" to="BD"/>
    <trip id="97" type="passenger" depart="325.82" from="CB" to="BD"/>
    <trip id="98" type="passenger" depart="329.18" from="CB" to="BA"/>
    <trip id="99" type="passenger" depart="332.54" from="DB" to="BD"/>
    <trip id="100" type="passenger" depart="335.90" from="DB" to="BD"/>
    <trip id="101" type="passenger" depart="339.26" from="DB" to="BA"/>
    <trip id="102" type="passenger" depart="342.62" from="CB" to="BA"/>
    <trip id="103" type="passenger" depart="345.98" from="CB" to="BA"/>
    <trip id="104" type="passenger" depart="349.34" from="BD" to="DB"/>
    <trip id="105" type="passenger" depart="352.70" from="AB" to="BD"/>
    <trip id="106" type="passenger" depart="356.06" from="CB" to="BC"/>
    <trip id="107" type="passenger" depart="359.41" from="DB" to="DB"/>
    <trip id="108" type="passenger" depart="362.77" from="CB" to="BD"/>
    <trip id="109" type="passenger" depart="366.13" from="AB" to="BA"/>
    <trip id="110" type="passenger" depart="369.49" from="DB" to="BC"/>
    <trip id="111" type="passenger" depart="372.85" from="CB" to="BD"/>
    <trip id="112" type="passenger" depart="376.21" from="AB" to="BC"/>
    <trip id="113" type="passenger" depart="379.57" from="CB" to="BD"/>
    <trip id="114" type="passenger" depart="382.93" from="AB" to="CB"/>
    <trip id="115" type="passenger" depart="386.29" from="AB" to="BA"/>
    <trip id="116" type="passenger" depart="389.65" from="CB" to="BD"/>
    <trip id="117" type="passenger" depart="393.00" from="AB" to="BA"/>
    <trip id="118" type="passenger" depart="396.36" from="DB" to="BA"/>
    <trip id="119" type="passenger" depart="399.72" from="CB" to="BC"/>
    <trip id="120" type="passenger" depart="403.08" from="CB" to="BC"/>
    <trip id="121" type="passenger" depart="406.44" from="CB" to="BD"/>
    <trip id="122" type="passenger" depart="409.80" from="AB" to="BD"/>
    <trip id="123" type="passenger" depart="413.16" from="AB" to="BC"/>
    <trip id="124" type="passenger" depart="416.52" from="CB" to="BA"/>
    <trip id="125" type="passenger" depart="419.88" from="BA" to="BD"/>
    <trip id="126" type="passenger" depart="423.24" from="AB" to="BC"/>
    <trip id="127" type="passenger" depart="426.59" from="DB" to="DB"/>
    <trip id="128" type="passenger" depart="429.95" from="AB" to="BA"/>
    <trip id="129" type="passenger" depart="433.31" from="AB" to="BD"/>
    <trip id="130" type="passenger" depart="436.67" from="DB" to="BD"/>
    <trip id="131" type="passenger" depart="440.03" from="BD" to="BA"/>
    <trip id="132" type="passenger" depart="443.39" from="DB" to="BD"/>
    <trip id="133" type="passenger" depart="446.75" from="CB" to="DB"/>
    <trip id="134" type="passenger" depart="450.11" from="CB" to="AB"/>
    <trip id="135" type="passenger" depart="453.47" from="DB" to="BA"/>
    <trip id="136" type="passenger" depart="456.83" from="CB" to="BD"/>
    <trip id="137" type="passenger" depart="460.18" from="AB" to="BA"/>
    <trip id="138" type="passenger" depart="463.54" from="AB" to="BC"/>
    <trip id="139" type="passenger" depart="466.90" from="AB" to="BC"/>
    <trip id="140" type="passenger" depart="470.26" from="DB" to="BA"/>
    <trip id="141" type="passenger" depart="473.62" from="CB" to="BA"/>
    <trip id="142" type="passenger" depart="476.98" from="CB" to="BD"/>
    <trip id="143" type="passenger" depart="480.34" from="DB" to="BA"/>
    <trip id="144" type="passenger" depart="483.70" from="CB" to="BA"/>
    <trip id="145" type="passenger" depart="487.06" from="AB" to="BD"/>
    <trip id="146" type="passenger" depart="490.42" from="CB" to="BA"/>
    <trip id="147" type="passenger" depart="493.78" from="DB" to="BC"/>
    <trip id="148" type="passenger" depart="497.13" from="CB" to="AB"/>
    <trip id="149" type="passenger" depart="500.49" from="AB" to="BD"/>
    <trip id="150" type="passenger" depart="503.85" from="DB" to="BC"/>
    <trip id="151" type="passenger" depart="507.21" from="DB" to="BC"/>
    <trip id="152" type="passenger" depart="510.57" from="AB" to="BA"/>
    <trip id="153" type="passenger" depart="513.93" from="BA" to="BD"/>
    <trip id="154" type="passenger" depart="517.29" from="DB" to="BD"/>
    <trip id="155" type="passenger" depart="520.65" from="DB" to="BA"/>
    <trip id="156" type="passenger" depart="524.01" from="AB" to="BA"/>
    <trip id="157" type="passenger" depart="527.37" from="DB" to="BD"/>
    <trip id="158" type="passenger" depart="530.72" from="CB" to="BC"/>
    <trip id="159" type="passenger" depart="534.08" from="AB" to="BD"/>
    <trip id="160" type="passenger" depart="537.44" from="DB" to="DB"/>
    <trip id="161" type="passenger" depart="540.80" from="DB" to="BD"/>
    <trip id="162" type="passenger" depart="544.16" from="AB" to="BD"/>
    <trip id="163" type="passenger" depart="547.52" from="BA" to="BD"/>
    <trip id="164" type="passenger" depart="550.88" from="DB" to="BD"/>
    <trip id="165" type="passenger" depart="554.24" from="DB" to="BA"/>
    <trip id="166" type="passenger" depart="557.60" from="DB" to="BA"/>
    <trip id="167" type="passenger" depart="560.96" from="DB" to="BD"/>
    <trip id="168" type="passenger" depart="564.31" from="AB" to="BD"/>
    <trip id="169" type="passenger" depart="567.67" from="CB" to="BA"/>
    <trip id="170" type="passenger" depart="571.03" from="DB" to="BA"/>
    <trip id="171" type="passenger" depart="574.39" from="AB" to="BA"/>
    <trip id="172" type="passenger" depart="577.75" from="BA" to="BD"/>
    <trip id="173" type="passenger" depart="581.11" from="DB" to="BA"/>
    <trip id="174" type="passenger" depart="584.47" from="CB" to="BC"/>
    <trip id="175" type="passenger" depart="587.83" from="DB" to="BC"/>
    <trip id="176" type="passenger" depart="591.19" from="DB" to="BA"/>
    <trip id="177" type="passenger" depart="594.55" from="DB" to="BA"/>
    <trip id="178" type="passenger" depart="597.90" from="DB" to="BA"/>
    <trip id="179" type="passenger" depart="601.26" from="AB" to="BC"/>
    <trip id="180" type="passenger" depart="604.62" from="DB" to="BA"/>
    <trip id="181" type="passenger" depart="607.98" from="CB" to="BC"/>
    <trip id="182" type="passenger" depart="611.34" from="BD" to="BC"/>
    <trip id="183" type="passenger" depart="614.70" from="AB" to="BD"/>
    <trip id="184" type="passenger" depart="618.06" from="AB" to="BD"/>
    <trip id="185" type="passenger" depart="621.42" from="CB" to="BD"/>
    <trip id="186" type="passenger" depart="624.78" from="DB" to="BD"/>
    <trip id="187" type="passenger" depart="628.14" from="BD" to="BA"/>
    <trip id="188" type="passenger" depart="631.49" from="CB" to="BA"/>
    <trip id="189" type="passenger" depart="634.85" from="BA" to="BD"/>
    <trip id="190" type="passenger" depart="638.21" from="DB" to="BA"/>
    <trip id="191" type="passenger" depart="641.57" from="BA" to="BC"/>
    <trip id="192" type="passenger" depart="644.93" from="CB" to="BA"/>
    <trip id="193" type="passenger" depart="648.29" from="AB" to="BC"/>
    <trip id="194" type="passenger" depart="651.65" from="DB" to="BD"/>
    <trip id="195" type="passenger" depart="655.01" from="DB" to="BC"/>
    <trip id="196" type="passenger" depart="658.37" from="AB" to="BC"/>
    <trip id="197" type="passenger" depart="661.73" from="AB" to="BA"/>
    <trip id="198" type="passenger" depart="665.08" from="CB" to="BC"/>
    <trip id="199" type="passenger" depart="668.44" from="CB" to="BC"/>
    <trip id="200" type="passenger" depart="671.80" from="CB" to="BA"/>
    <trip id="201" type="passenger" depart="675.16" from="CB" to="BD"/>
    <trip id="202" type="passenger" depart="678.52" from="DB" to="BA"/>
    <trip id="203" type="passenger" depart="681.88" from="AB" to="BC"/>
    <trip id="204" type="passenger" depart="685.24" from="CB" to="BC"/>
    <trip id="205" type="passenger" depart="688.60" from="DB" to="BD"/>
    <trip id="206" type="passenger" depart="691.96" from="CB" to="BA"/>
    <trip id="207" type="passenger" depart="695.32" from="AB" to="AB"/>
    <trip id="208" type="passenger" depart="698.67" from="AB" to="BC"/>
    <trip id="209" type="passenger" depart="702.03" from="DB" to="BA"/>
    <trip id="210" type="passenger" depart="705.39" from="CB" to="BC"/>
    <trip id="211" type="passenger" depart="708.75" from="AB" to="BD"/>
    <trip id="212" type="passenger" depart="712.11" from="CB" to="BA"/>
    <trip id="213" type="passenger" depart="715.47" from="CB" to="AB"/>
    <trip id="214" type="passenger" depart="718.83" from="DB" to="BD"/>
    <trip id="215" type="passenger" depart="722.19" from="AB" to="BC"/>
    <trip id="216" type="passenger" depart="725.55" from="AB" to="CB"/>
    <trip id="217" type="passenger" depart="728.91" from="CB" to="BA"/>
    <trip id="218" type="passenger" depart="732.27" from="AB" to="BD"/>
    <trip id="219" type="passenger" depart="735.62" from="CB" to="BD"/>
    <trip id="220" type="passenger" depart="738.98" from="CB" to="DB"/>
    <trip id="221" type="passenger" depart="742.34" from="CB" to="CB"/>
    <trip id="222" type="passenger" depart="745.70" from="DB" to="BC"/>
    <trip id="223" type="passenger" depart="749.06" from="DB" to="BC"/>
    <trip id="224" type="passenger" depart="752.42" from="DB" to="BC"/>
    <trip id="225" type="passenger" depart="755.78" from="DB" to="BD"/>
    <trip id="226" type="passenger" depart="759.14" from="CB" to="BA"/>
    <trip id="227" type="passenger" depart="762.50" from="AB" to="BD"/>
    <trip id="228" type="passenger" depart="765.86" from="DB" to="BC"/>
    <trip id="229" type="passenger" depart="769.21" from="CB" to="BA"/>
    <trip id="230" type="passenger" depart="772.57" from="AB" to="BA"/>
    <trip id="231" type="passenger" depart="775.93" from="AB" to="BA"/>
    <trip id="232" type="passenger" depart="779.29" from="CB" to="BA"/>
    <trip id="233" type="passenger" depart="782.65" from="AB" to="BD"/>
    <trip id="234" type="passenger" depart="786.01" from="DB" to="BA"/>
    <trip id="235" type="passenger" depart="789.37" from="CB" to="BC"/>
    <trip id="236" type="passenger" depart="792.73" from="CB" to="BA"/>
    <trip id="237" type="passenger" depart="796.09" from="CB" to="BD"/>
    <trip id="238" type="passenger" depart="799.45" from="CB" to="BD"/>
    <trip id="239" type="passenger" depart="802.80" from="DB" to="BD"/>
    <trip id="240" type="passenger" depart="806.16" from="BD" to="AB"/>
    <trip id="241" type="passenger" depart="809.52" from="BC" to="BD"/>
    <trip id="242" type="passenger" depart="812.88" from="DB" to="CB"/>
    <trip id="243" type="passenger" depart="816.24" from="CB" to="BD"/>
    <trip id="244" type="passenger" depart="819.60" from="CB" to="BC"/>
    <trip id="245" type="passenger" depart="822.96" from="AB" to="BA"/>
    <trip id="246" type="passenger" depart="826.32" from="CB" to="AB"/>
    <trip id="247" type="passenger" depart="829.68" from="BC" to="BD"/>
    <trip id="248" type="passenger" depart="833.04" from="CB" to="BA"/>
    <trip id="249" type="passenger" depart="836.39" from="CB" to="BA"/>
    <trip id="250" type="passenger" depart="839.75" from="CB" to="AB"/>
    <trip id="251" type="passenger" depart="843.11" from="CB" to="BC"/>
    <trip id="252" type="passenger" depart="846.47" from="AB" to="BD"/>
    <trip id="253" type="passenger" depart="849.83" from="AB" to="BC"/>
    <trip id="254" type="passenger" depart="853.19" from="AB" to="BC"/>
    <trip id="255" type="passenger" depart="856.55" from="AB" to="BA"/>
    <trip id="256" type="passenger" depart="859.91" from="DB" to="BC"/>
    <trip id="257" type="passenger" depart="863.27" from="DB" to="BD"/>
    <trip id="258" type="passenger" depart="866.63" from="AB" to="BA"/>
    <trip id="259" type="passenger" depart="869.98" from="AB" to="BC"/>
    <trip id="260" type="passenger" depart="873.34" from="DB" to="BC"/>
    <trip id="261" type="passenger" depart="876.70" from="CB" to="BD"/>
    <trip id="262" type="passenger" depart="880.06" from="CB" to="BD"/>
    <trip id="263" type="passenger" depart="883.42" from="DB" to="BA"/>
    <trip id="264" type="passenger" depart="886.78" from="AB" to="BA"/>
    <trip id="265" type="passenger" depart="890.14" from="AB" to="BD"/>
    <trip id="266" type="passenger" depart="893.50" from="CB" to="BA"/>
    <trip id="267" type="passenger" depart="896.86" from="DB" to="BD"/>
    <trip id="268" type="passenger" depart="900.22" from="AB" to="BC"/>
    <trip id="269" type="passenger" depart="903.57" from="DB" to="BA"/>
    <trip id="270" type="passenger" depart="906.93" from="DB" to="CB"/>
    <trip id="271" type="passenger" depart="910.29" from="AB" to="AB"/>
    <trip id="272" type="passenger" depart="913.65" from="BA" to="BD"/>
    <trip id="273" type="passenger" depart="917.01" from="DB" to="BC"/>
    <trip id="274" type="passenger" depart="920.37" from="DB" to="BA"/>
    <trip id="275" type="passenger" depart="923.73" from="CB" to="BC"/>
    <trip id="276" type="passenger" depart="927.09" from="AB" to="BD"/>
    <trip id="277" type="passenger" depart="930.45" from="DB" to="BC"/>
    <trip id="278" type="passenger" depart="933.81" from="AB" to="DB"/>
    <trip id="279" type="passenger" depart="937.16" from="DB" to="BC"/>
    <trip id="280" type="passenger" depart="940.52" from="CB" to="BC"/>
    <trip id="281" type="passenger" depart="943.88" from="CB" to="BC"/>
    <trip id="282" type="passenger" depart="947.24" from="DB" to="BD"/>
    <trip id="283" type="passenger" depart="950.60" from="AB" to="CB"/>
    <trip id="284" type="passenger" depart="953.96" from="CB" to="BD"/>
    <trip id="285" type="passenger" depart="957.32" from="DB" to="BC"/>
    <trip id="286" type="passenger" depart="960.68" from="DB" to="CB"/>
    <trip id="287" type="passenger" depart="964.04" from="AB" to="BD"/>
    <trip id="288" type="passenger" depart="967.40" from="CB" to="BC"/>
    <trip id="289" type="passenger" depart="970.76" from="CB" to="BD"/>
    <trip id="290" type="passenger" depart="974.11" from="AB" to="BD"/>
    <trip id="291" type="passenger" depart="977.47" from="DB" to="BA"/>
    <trip id="292" type="passenger" depart="980.83" from="DB" to="BA"/>
    <trip id="293" type="passenger" depart="984.19" from="CB" to="BC"/>
    <trip id="294" type="passenger" depart="987.55" from="BD" to="AB"/>
    <trip id="295" type="passenger" depart="990.91" from="DB" to="BA"/>
    <trip id="296" type="passenger" depart="994.27" from="AB" to="BD"/>
    <trip id="297" type="passenger" depart="997.63" from="BC" to="BD"/>
    <trip id="298" type="passenger" depart="1000.99" from="DB" to="BA"/>
    <trip id="299" type="passenger" depart="1004.35" from="AB" to="CB"/>
    <trip id="300" type="passenger" depart="1007.70" from="AB" to="BD"/>
    <trip id="301" type="passenger" depart="1011.06" from="CB" to="BD"/>
    <trip id="302" type="passenger" depart="1014.42" from="CB" to="BD"/>
    <trip id="303" type="passenger" depart="1017.78" from="CB" to="BD"/>
    <trip id="304" type="passenger" depart="1021.14" from="AB" to="BA"/>
    <trip id="305" type="passenger" depart="1024.50" from="CB" to="BA"/>
    <trip id="306" type="passenger" depart="1027.86" from="CB" to="BC"/>
    <trip id="307" type="passenger" depart="1031.22" from="CB" to="BC"/>
    <trip id="308" type="passenger" depart="1034.58" from="DB" to="BA"/>
    <trip id="309" type="passenger" depart="1037.94" from="DB" to="BA"/>
    <trip id="310" type="passenger" depart="1041.29" from="AB" to="BA"/>
    <trip id="311" type="passenger" depart="1044.65" from="AB" to="BA"/>
    <trip id="312" type="passenger" depart="1048.01" from="CB" to="BD"/>
    <trip id="313" type="passenger" depart="1051.37" from="AB" to="BA"/>
    <trip id="314" type="passenger" depart="1054.73" from="CB" to="BD"/>
    <trip id="315" type="passenger" depart="1058.09" from="DB" to="BC"/>
    <trip id="316" type="passenger" depart="1061.45" from="AB" to="BA"/>
    <trip id="317" type="passenger" depart="1064.81" from="AB" to="BA"/>
    <trip id="318" type="passenger" depart="1068.17" from="AB" to="AB"/>
    <trip id="319" type="passenger" depart="1071.53" from="CB" to="BA"/>
    <trip id="320" type="passenger" depart="1074.88" from="DB" to="BC"/>
    <trip id="321" type="passenger" depart="1078.24" from="DB" to="BA"/>
    <trip id="322" type="passenger" depart="1081.60" from="DB" to="BC"/>
    <trip id="323" type="passenger" depart="1084.96" from="DB" to="BC"/>
    <trip id="324" type="passenger" depart="1088.32" from="CB" to="BC"/>
    <trip id="325" type="passenger" depart="1091.68" from="AB" to="BA"/>
    <trip id="326" type="passenger" depart="1095.04" from="DB" to="BC"/>
    <trip id="327" type="passenger" depart="1098.40" from="DB" to="BC"/>
    <trip id="328" type="passenger" depart="1101.76" from="AB" to="BC"/>
    <trip id="329" type="passenger" depart="1105.12" from="AB" to="BA"/>
    <trip id="330" type="passenger" depart="1108.47" from="CB" to="BA"/>
    <trip id="331" type="passenger" depart="1111.83" from="DB" to="BA"/>
    <trip id="332" type="passenger" depart="1115.19" from="DB" to="BC"/>
    <trip id="333" type="passenger" depart="1118.55" from="DB" to="BA"/>
    <trip id="334" type="passenger" depart="1121.91" from="CB" to="BC"/>
    <trip id="335" type="passenger" depart="1125.27" from="CB" to="BD"/>
    <trip id="336" type="passenger" depart="1128.63" from="DB" to="BA"/>
    <trip id="337" type="passenger" depart="1131.99" from="CB" to="BC"/>
    <trip id="338" type="passenger" depart="1135.35" from="DB" to="CB"/>
    <trip id="339" type="passenger" depart="1138.71" from="AB" to="BA"/>
    <trip id="340" type="passenger" depart="1142.06" from="CB" to="BA"/>
    <trip id="341" type="passenger" depart="1145.42" from="AB" to="BA"/>
    <trip id="342" type="passenger" depart="1148.78" from="AB" to="BC"/>
    <trip id="343" type="passenger" depart="1152.14" from="CB" to="BA"/>
    <trip id="344" type="passenger" depart="1155.50" from="AB" to="BD"/>
    <trip id="345" type="passenger" depart="1158.86" from="DB" to="BC"/>
    <trip id="346" type="passenger" depart="1162.22" from="CB" to="BD"/>
    <trip id="347" type="passenger" depart="1165.58" from="DB" to="BC"/>
    <trip id="348" type="passenger" depart="1168.94" from="CB" to="BD"/>
    <trip id="349" type="passenger" depart="1172.30" from="CB" to="BC"/>
    <trip id="350" type="passenger" depart="1175.65" from="CB" to="BD"/>
    <trip id="351" type="passenger" depart="1179.01" from="DB" to="BA"/>
    <trip id="352" type="passenger" depart="1182.37" from="AB" to="BA"/>
    <trip id="353" type="passenger" depart="1185.73" from="DB" to="BC"/>
    <trip id="354" type="passenger" depart="1189.09" from="AB" to="BA"/>
    <trip id="355" type="passenger" depart="1192.45" from="CB" to="BD"/>
    <trip id="356" type="passenger" depart="1195.81" from="DB" to="BC"/>
    <trip id="357" type="passenger" depart="1199.17" from="CB" to="BA"/>
    <trip id="358" type="passenger" depart="1202.53" from="AB" to="BC"/>
    <trip id="359" type="passenger" depart="1205.89" from="BA" to="BA"/>
    <trip id="360" type="passenger" depart="1209.25" from="AB" to="CB"/>
    <trip id="361" type="passenger" depart="1212.60" from="DB" to="BC"/>
    <trip id="362" type="passenger" depart="1215.96" from="DB" to="DB"/>
    <trip id="363" type="passenger" depart="1219.32" from="CB" to="BA"/>
    <trip id="364" type="passenger" depart="1222.68" from="AB" to="BD"/>
    <trip id="365" type="passenger" depart="1226.04" from="CB" to="BD"/>
    <trip id="366" type="passenger" depart="1229.40" from="DB" to="BA"/>
    <trip id="367" type="passenger" depart="1232.76" from="CB" to="BC"/>
    <trip id="368" type="passenger" depart="1236.12" from="CB" to="BA"/>
    <trip id="369" type="passenger" depart="1239.48" from="BC" to="BA"/>
    <trip id="370" type="passenger" depart="1242.84" from="CB" to="BD"/>
    <trip id="371" type="passenger" depart="1246.19" from="BA" to="BD"/>
    <trip id="372" type="passenger" depart="1249.55" from="AB" to="CB"/>
    <trip id="373" type="passenger" depart="1252.91" from="DB" to="BC"/>
    <trip id="374" type="passenger" depart="1256.27" from="CB" to="BA"/>
    <trip id="375" type="passenger" depart="1259.63" from="BA" to="DB"/>
    <trip id="376" type="passenger" depart="1262.99" from="CB" to="BC"/>
    <trip id="377" type="passenger" depart="1266.35" from="DB" to="BD"/>
    <trip id="378" type="passenger" depart="1269.71" from="CB" to="BC"/>
    <trip id="379" type="passenger" depart="1273.07" from="AB" to="BC"/>
    <trip id="380" type="passenger" depart="1276.43" from="DB" to="BC"/>
    <trip id="381" type="passenger" depart="1279.78" from="DB" to="BA"/>
    <trip id="382" type="passenger" depart="1283.14" from="CB" to="BD"/>
    <trip id="383" type="passenger" depart="1286.50" from="CB" to="BD"/>
    <trip id="384" type="passenger" depart="1289.86" from="AB" to="DB"/>
    <trip id="385" type="passenger" depart="1293.22" from="CB" to="BA"/>
    <trip id="386" type="passenger" depart="1296.58" from="AB" to="BC"/>
    <trip id="387" type="passenger" depart="1299.94" from="CB" to="BA"/>
    <trip id="388" type="passenger" depart="1303.30" from="DB" to="BD"/>
    <trip id="389" type="passenger" depart="1306.66" from="CB" to="BA"/>
    <trip id="390" type="passenger" depart="1310.02" from="DB" to="BC"/>
    <trip id="391" type="passenger" depart="1313.37" from="DB" to="BC"/>
    <trip id="392" type="passenger" depart="1316.73" from="AB" to="BD"/>
    <trip id="393" type="passenger" depart="1320.09" from="DB" to="BA"/>
    <trip id="394" type="passenger" depart="1323.45" from="CB" to="BC"/>
    <trip id="395" type="passenger" depart="1326.81" from="DB" to="BC"/>