<?xml version="1.0" encoding="UTF-8"?>

<!-- generated on 2025-03-30 11:38:42 by Eclipse SUMO netconvert Version 1.22.0
<netconvertConfiguration xmlns:xsi="http://www.w3.org/2001/XMLSchema-instance" xsi:noNamespaceSchemaLocation="http://sumo.dlr.de/xsd/netconvertConfiguration.xsd">

    <input>
        <node-files value="traffic_dataset\scenario_0\network.nod.xml"/>
        <edge-files value="traffic_dataset\scenario_0\network.edg.xml"/>
    </input>

    <output>
        <output-file value="traffic_dataset\scenario_0\network.net.xml"/>
    </output>

</netconvertConfiguration>
-->

<net version="1.20" junctionCornerDetail="5" limitTurnSpeed="5.50" xmlns:xsi="http://www.w3.org/2001/XMLSchema-instance" xsi:noNamespaceSchemaLocation="http://sumo.dlr.de/xsd/net_file.xsd">

    <location netOffset="100.00,100.00" convBoundary="0.00,0.00,200.00,200.00" origBoundary="-100.00,-100.00,100.00,100.00" projParameter="!"/>

    <edge id=":A_0" function="internal">
        <lane id=":A_0_0" index="0" speed="3.65" length="4.67" shape="0.00,101.60 -1.20,100.80 -1.60,100.00 -1.20,99.20 0.00,98.40"/>
    </edge>
    <edge id=":B_0" function="internal">
        <lane id=":B_0_0" index="0" speed="6.51" length="9.03" shape="95.20,110.40 94.85,107.95 93.80,106.20 92.05,105.15 89.60,104.80"/>
    </edge>
    <edge id=":B_1" function="internal">
        <lane id=":B_1_0" index="0" speed="13.89" length="20.80" shape="95.20,110.40 95.20,89.60"/>
        <lane id=":B_1_1" index="1" speed="13.89" length="20.80" shape="98.40,110.40 98.40,89.60"/>
    </edge>
    <edge id=":B_3" function="internal">
        <lane id=":B_3_0" index="0" speed="9.26" length="5.01" shape="98.40,110.40 99.11,105.44"/>
    </edge>
    <edge id=":B_4" function="internal">
        <lane id=":B_4_0" index="0" speed="3.65" length="1.44" shape="98.40,110.40 99.20,109.20"/>
    </edge>
    <edge id=":B_20" function="internal">
        <lane id=":B_20_0" index="0" speed="9.26" length="14.34" shape="99.11,105.44 99.15,105.15 101.40,101.40 105.15,99.15 110.40,98.40"/>
    </edge>
    <edge id=":B_21" function="internal">
        <lane id=":B_21_0" index="0" speed="3.65" length="3.23" shape="99.20,109.20 100.00,108.80 100.80,109.20 101.60,110.40"/>
    </edge>
    <edge id=":B_5" function="internal">
        <lane id=":B_5_0" index="0" speed="6.51" length="9.03" shape="110.40,104.80 107.95,105.15 106.20,106.20 105.15,107.95 104.80,110.40"/>
    </edge>
    <edge id=":B_6" function="internal">
        <lane id=":B_6_0" index="0" speed="13.89" length="20.80" shape="110.40,104.80 89.60,104.80"/>
        <lane id=":B_6_1" index="1" speed="13.89" length="20.80" shape="110.40,101.60 89.60,101.60"/>
    </edge>
    <edge id=":B_8" function="internal">
        <lane id=":B_8_0" index="0" speed="9.26" length="5.01" shape="110.40,101.60 105.44,100.89"/>
    </edge>
    <edge id=":B_9" function="internal">
        <lane id=":B_9_0" index="0" speed="3.65" length="1.44" shape="110.40,101.60 109.20,100.80"/>
    </edge>
    <edge id=":B_22" function="internal">
        <lane id=":B_22_0" index="0" speed="9.26" length="14.34" shape="105.44,100.89 105.15,100.85 101.40,98.60 99.15,94.85 98.40,89.60"/>
    </edge>
    <edge id=":B_23" function="internal">
        <lane id=":B_23_0" index="0" speed="3.65" length="3.23" shape="109.20,100.80 108.80,100.00 109.20,99.20 110.40,98.40"/>
    </edge>
    <edge id=":B_10" function="internal">
        <lane id=":B_10_0" index="0" speed="6.51" length="9.03" shape="104.80,89.60 105.15,92.05 106.20,93.80 107.95,94.85 110.40,95.20"/>
    </edge>
    <edge id=":B_11" function="internal">
        <lane id=":B_11_0" index="0" speed="13.89" length="20.80" shape="104.80,89.60 104.80,110.40"/>
        <lane id=":B_11_1" index="1" speed="13.89" length="20.80" shape="101.60,89.60 101.60,110.40"/>
    </edge>
    <edge id=":B_13" function="internal">
        <lane id=":B_13_0" index="0" speed="9.26" length="5.01" shape="101.60,89.60 100.89,94.56"/>
    </edge>
    <edge id=":B_14" function="internal">
        <lane id=":B_14_0" index="0" speed="3.65" length="1.44" shape="101.60,89.60 100.80,90.80"/>
    </edge>
    <edge id=":B_24" function="internal">
        <lane id=":B_24_0" index="0" speed="9.26" length="14.34" shape="100.89,94.56 100.85,94.85 98.60,98.60 94.85,100.85 89.60,101.60"/>
    </edge>
    <edge id=":B_25" function="internal">
        <lane id=":B_25_0" index="0" speed="3.65" length="3.23" shape="100.80,90.80 100.00,91.20 99.20,90.80 98.40,89.60"/>
    </edge>
    <edge id=":B_15" function="internal">
        <lane id=":B_15_0" index="0" speed="6.51" length="9.03" shape="89.60,95.20 92.05,94.85 93.80,93.80 94.85,92.05 95.20,89.60"/>
    </edge>
    <edge id=":B_16" function="internal">
        <lane id=":B_16_0" index="0" speed="13.89" length="20.80" shape="89.60,95.20 110.40,95.20"/>
        <lane id=":B_16_1" index="1" speed="13.89" length="20.80" shape="89.60,98.40 110.40,98.40"/>
    </edge>
    <edge id=":B_18" function="internal">
        <lane id=":B_18_0" index="0" speed="9.26" length="5.01" shape="89.60,98.40 94.56,99.11"/>
    </edge>
    <edge id=":B_19" function="internal">
        <lane id=":B_19_0" index="0" speed="3.65" length="1.44" shape="89.60,98.40 90.80,99.20"/>
    </edge>
    <edge id=":B_26" function="internal">
        <lane id=":B_26_0" index="0" speed="9.26" length="14.34" shape="94.56,99.11 94.85,99.15 98.60,101.40 100.85,105.15 101.60,110.40"/>
    </edge>
    <edge id=":B_27" function="internal">
        <lane id=":B_27_0" index="0" speed="3.65" length="3.23" shape="90.80,99.20 91.20,100.00 90.80,100.80 89.60,101.60"/>
    </edge>
    <edge id=":C_0" function="internal">
        <lane id=":C_0_0" index="0" speed="3.65" length="4.67" shape="200.00,98.40 201.20,99.20 201.60,100.00 201.20,100.80 200.00,101.60"/>
    </edge>
    <edge id=":D_0" function="internal">
        <lane id=":D_0_0" index="0" speed="3.65" length="4.67" shape="101.60,200.00 100.80,201.20 100.00,201.60 99.20,201.20 98.40,200.00"/>
    </edge>
    <edge id=":E_0" function="internal">
        <lane id=":E_0_0" index="0" speed="3.65" length="4.67" shape="98.40,0.00 99.20,-1.20 100.00,-1.60 100.80,-1.20 101.60,0.00"/>
    </edge>

    <edge id="AB" from="A" to="B" priority="-1">
        <lane id="AB_0" index="0" speed="13.89" length="89.60" shape="0.00,95.20 89.60,95.20"/>
        <lane id="AB_1" index="1" speed="13.89" length="89.60" shape="0.00,98.40 89.60,98.40"/>
    </edge>
    <edge id="BA" from="B" to="A" priority="-1">
        <lane id="BA_0" index="0" speed="13.89" length="89.60" shape="89.60,104.80 0.00,104.80"/>
        <lane id="BA_1" index="1" speed="13.89" length="89.60" shape="89.60,101.60 0.00,101.60"/>
    </edge>
    <edge id="BC" from="B" to="C" priority="-1">
        <lane id="BC_0" index="0" speed="13.89" length="89.60" shape="110.40,95.20 200.00,95.20"/>
        <lane id="BC_1" index="1" speed="13.89" length="89.60" shape="110.40,98.40 200.00,98.40"/>
    </edge>
    <edge id="BD" from="B" to="D" priority="-1">
        <lane id="BD_0" index="0" speed="13.89" length="89.60" shape="104.80,110.40 104.80,200.00"/>
        <lane id="BD_1" index="1" speed="13.89" length="89.60" shape="101.60,110.40 101.60,200.00"/>
    </edge>
    <edge id="BE" from="B" to="E" priority="-1">
        <lane id="BE_0" index="0" speed="13.89" length="89.60" shape="95.20,89.60 95.20,0.00"/>
        <lane id="BE_1" index="1" speed="13.89" length="89.60" shape="98.40,89.60 98.40,0.00"/>
    </edge>
    <edge id="CB" from="C" to="B" priority="-1">
        <lane id="CB_0" index="0" speed="13.89" length="89.60" shape="200.00,104.80 110.40,104.80"/>
        <lane id="CB_1" index="1" speed="13.89" length="89.60" shape="200.00,101.60 110.40,101.60"/>
    </edge>
    <edge id="DB" from="D" to="B" priority="-1">
        <lane id="DB_0" index="0" speed="13.89" length="89.60" shape="95.20,200.00 95.20,110.40"/>
        <lane id="DB_1" index="1" speed="13.89" length="89.60" shape="98.40,200.00 98.40,110.40"/>
    </edge>
    <edge id="EB" from="E" to="B" priority="-1">
        <lane id="EB_0" index="0" speed="13.89" length="89.60" shape="104.80,0.00 104.80,89.60"/>
        <lane id="EB_1" index="1" speed="13.89" length="89.60" shape="101.60,0.00 101.60,89.60"/>
    </edge>

    <tlLogic id="B" type="static" programID="0" offset="0">
        <phase duration="42" state="GGGggrrrrrGGGggrrrrr"/>
        <phase duration="3"  state="yyyyyrrrrryyyyyrrrrr"/>
        <phase duration="42" state="rrrrrGGGggrrrrrGGGgg"/>
        <phase duration="3"  state="rrrrryyyyyrrrrryyyyy"/>
    </tlLogic>

    <junction id="A" type="priority" x="0.00" y="100.00" incLanes="BA_0 BA_1" intLanes=":A_0_0" shape="0.00,100.00 0.00,106.40 0.00,100.00">
        <request index="0" response="0" foes="0" cont="0"/>
    </junction>
    <junction id="B" type="traffic_light" x="100.00" y="100.00" incLanes="DB_0 DB_1 CB_0 CB_1 EB_0 EB_1 AB_0 AB_1" intLanes=":B_0_0 :B_1_0 :B_1_1 :B_20_0 :B_21_0 :B_5_0 :B_6_0 :B_6_1 :B_22_0 :B_23_0 :B_10_0 :B_11_0 :B_11_1 :B_24_0 :B_25_0 :B_15_0 :B_16_0 :B_16_1 :B_26_0 :B_27_0" shape="93.60,110.40 106.40,110.40 106.84,108.18 107.40,107.40 108.18,106.84 109.18,106.51 110.40,106.40 110.40,93.60 108.18,93.16 107.40,92.60 106.84,91.82 106.51,90.82 106.40,89.60 93.60,89.60 93.16,91.82 92.60,92.60 91.82,93.16 90.82,93.49 89.60,93.60 89.60,106.40 91.82,106.84 92.60,107.40 93.16,108.18 93.49,109.18">
        <request index="0"  response="00000000000000000000" foes="00000000000011000000" cont="0"/>
        <request index="1"  response="01000000000100000000" foes="01111110000111000000" cont="0"/>
        <request index="2"  response="01000000000100000000" foes="01111110000111000000" cont="0"/>
        <request index="3"  response="01000001100100000000" foes="01110001101111000000" cont="1"/>
        <request index="4"  response="01000001100000000000" foes="01000001100000000000" cont="1"/>
        <request index="5"  response="00000001100000000000" foes="00000001100000000000" cont="0"/>
        <request index="6"  response="00000011100000001111" foes="11000011100000001111" cont="0"/>
        <request index="7"  response="00000011100000001111" foes="11000011100000001111" cont="0"/>
        <request index="8"  response="00110011100000001110" foes="00110111100000001110" cont="1"/>
        <request index="9"  response="00110000000000001000" foes="00110000000000001000" cont="1"/>
        <request index="10" response="00000000000000000000" foes="00110000000000000000" cont="0"/>
        <request index="11" response="01000000000100000000" foes="01110000000111111000" cont="0"/>
        <request index="12" response="01000000000100000000" foes="01110000000111111000" cont="0"/>
        <request index="13" response="01000000000100000110" foes="11110000000111000110" cont="1"/>
        <request index="14" response="00000000000100000110" foes="00000000000100000110" cont="1"/>
        <request index="15" response="00000000000000000110" foes="00000000000000000110" cont="0"/>
        <request index="16" response="00000011110000001110" foes="00000011111100001110" cont="0"/>
        <request index="17" response="00000011110000001110" foes="00000011111100001110" cont="0"/>
        <request index="18" response="00000011100011001110" foes="00000011100011011110" cont="1"/>
        <request index="19" response="00000010000011000000" foes="00000010000011000000" cont="1"/>
    </junction>
    <junction id="C" type="priority" x="200.00" y="100.00" incLanes="BC_0 BC_1" intLanes=":C_0_0" shape="200.00,100.00 200.00,93.60 200.00,100.00">
        <request index="0" response="0" foes="0" cont="0"/>
    </junction>
    <junction id="D" type="priority" x="100.00" y="200.00" incLanes="BD_0 BD_1" intLanes=":D_0_0" shape="100.00,200.00 106.40,200.00 100.00,200.00">
        <request index="0" response="0" foes="0" cont="0"/>
    </junction>
    <junction id="E" type="priority" x="100.00" y="0.00" incLanes="BE_0 BE_1" intLanes=":E_0_0" shape="100.00,0.00 93.60,0.00 100.00,0.00">
        <request index="0" response="0" foes="0" cont="0"/>
    </junction>

    <junction id=":B_20_0" type="internal" x="99.11" y="105.44" incLanes=":B_3_0 EB_0 EB_1" intLanes=":B_6_0 :B_6_1 :B_8_0 :B_9_0 :B_10_0 :B_11_0 :B_11_1 :B_16_0 :B_16_1 :B_18_0"/>
    <junction id=":B_21_0" type="internal" x="99.20" y="109.20" incLanes=":B_4_0 AB_1 CB_0 EB_0 EB_1" intLanes=":B_5_0 :B_11_0 :B_11_1 :B_18_0"/>
    <junction id=":B_22_0" type="internal" x="105.44" y="100.89" incLanes=":B_8_0 AB_0 AB_1" intLanes=":B_1_0 :B_1_1 :B_3_0 :B_11_0 :B_11_1 :B_13_0 :B_14_0 :B_15_0 :B_16_0 :B_16_1"/>
    <junction id=":B_23_0" type="internal" x="109.20" y="100.80" incLanes=":B_9_0 AB_0 AB_1 DB_1 EB_0" intLanes=":B_3_0 :B_10_0 :B_16_0 :B_16_1"/>
    <junction id=":B_24_0" type="internal" x="100.89" y="94.56" incLanes=":B_13_0 DB_0 DB_1" intLanes=":B_0_0 :B_1_0 :B_1_1 :B_6_0 :B_6_1 :B_8_0 :B_16_0 :B_16_1 :B_18_0 :B_19_0"/>
    <junction id=":B_25_0" type="internal" x="100.80" y="90.80" incLanes=":B_14_0 AB_0 CB_1 DB_0 DB_1" intLanes=":B_1_0 :B_1_1 :B_8_0 :B_15_0"/>
    <junction id=":B_26_0" type="internal" x="94.56" y="99.11" incLanes=":B_18_0 CB_0 CB_1" intLanes=":B_1_0 :B_1_1 :B_3_0 :B_4_0 :B_5_0 :B_6_0 :B_6_1 :B_11_0 :B_11_1 :B_13_0"/>
    <junction id=":B_27_0" type="internal" x="90.80" y="99.20" incLanes=":B_19_0 CB_0 CB_1 DB_0 EB_1" intLanes=":B_0_0 :B_6_0 :B_6_1 :B_13_0"/>

    <connection from="AB" to="BE" fromLane="0" toLane="0" via=":B_15_0" tl="B" linkIndex="15" dir="r" state="o"/>
    <connection from="AB" to="BC" fromLane="0" toLane="0" via=":B_16_0" tl="B" linkIndex="16" dir="s" state="o"/>
    <connection from="AB" to="BC" fromLane="1" toLane="1" via=":B_16_1" tl="B" linkIndex="17" dir="s" state="o"/>
    <connection from="AB" to="BD" fromLane="1" toLane="1" via=":B_18_0" tl="B" linkIndex="18" dir="l" state="o"/>
    <connection from="AB" to="BA" fromLane="1" toLane="1" via=":B_19_0" tl="B" linkIndex="19" dir="t" state="o"/>
    <connection from="BA" to="AB" fromLane="1" toLane="1" via=":A_0_0" dir="t" state="M"/>
    <connection from="BC" to="CB" fromLane="1" toLane="1" via=":C_0_0" dir="t" state="M"/>
    <connection from="BD" to="DB" fromLane="1" toLane="1" via=":D_0_0" dir="t" state="M"/>
    <connection from="BE" to="EB" fromLane="1" toLane="1" via=":E_0_0" dir="t" state="M"/>
    <connection from="CB" to="BD" fromLane="0" toLane="0" via=":B_5_0" tl="B" linkIndex="5" dir="r" state="o"/>
    <connection from="CB" to="BA" fromLane="0" toLane="0" via=":B_6_0" tl="B" linkIndex="6" dir="s" state="o"/>
    <connection from="CB" to="BA" fromLane="1" toLane="1" via=":B_6_1" tl="B" linkIndex="7" dir="s" state="o"/>
    <connection from="CB" to="BE" fromLane="1" toLane="1" via=":B_8_0" tl="B" linkIndex="8" dir="l" state="o"/>
    <connection from="CB" to="BC" fromLane="1" toLane="1" via=":B_9_0" tl="B" linkIndex="9" dir="t" state="o"/>
    <connection from="DB" to="BA" fromLane="0" toLane="0" via=":B_0_0" tl="B" linkIndex="0" dir="r" state="O"/>
    <connection from="DB" to="BE" fromLane="0" toLane="0" via=":B_1_0" tl="B" linkIndex="1" dir="s" state="O"/>
    <connection from="DB" to="BE" fromLane="1" toLane="1" via=":B_1_1" tl="B" linkIndex="2" dir="s" state="O"/>
    <connection from="DB" to="BC" fromLane="1" toLane="1" via=":B_3_0" tl="B" linkIndex="3" dir="l" state="o"/>
    <connection from="DB" to="BD" fromLane="1" toLane="1" via=":B_4_0" tl="B" linkIndex="4" dir="t" state="o"/>
    <connection from="EB" to="BC" fromLane="0" toLane="0" via=":B_10_0" tl="B" linkIndex="10" dir="r" state="O"/>
    <connection from="EB" to="BD" fromLane="0" toLane="0" via=":B_11_0" tl="B" linkIndex="11" dir="s" state="O"/>
    <connection from="EB" to="BD" fromLane="1" toLane="1" via=":B_11_1" tl="B" linkIndex="12" dir="s" state="O"/>
    <connection from="EB" to="BA" fromLane="1" toLane="1" via=":B_13_0" tl="B" linkIndex="13" dir="l" state="o"/>
    <connection from="EB" to="BE" fromLane="1" toLane="1" via=":B_14_0" tl="B" linkIndex="14" dir="t" state="o"/>

    <connection from=":A_0" to="AB" fromLane="0" toLane="1" dir="t" state="M"/>
    <connection from=":B_0" to="BA" fromLane="0" toLane="0" dir="r" state="M"/>
    <connection from=":B_1" to="BE" fromLane="0" toLane="0" dir="s" state="M"/>
    <connection from=":B_1" to="BE" fromLane="1" toLane="1" dir="s" state="M"/>
    <connection from=":B_3" to="BC" fromLane="0" toLane="1" via=":B_20_0" dir="l" state="m"/>
    <connection from=":B_20" to="BC" fromLane="0" toLane="1" dir="l" state="M"/>
    <connection from=":B_4" to="BD" fromLane="0" toLane="1" via=":B_21_0" dir="t" state="m"/>
    <connection from=":B_21" to="BD" fromLane="0" toLane="1" dir="t" state="M"/>
    <connection from=":B_5" to="BD" fromLane="0" toLane="0" dir="r" state="M"/>
    <connection from=":B_6" to="BA" fromLane="0" toLane="0" dir="s" state="M"/>
    <connection from=":B_6" to="BA" fromLane="1" toLane="1" dir="s" state="M"/>
    <connection from=":B_8" to="BE" fromLane="0" toLane="1" via=":B_22_0" dir="l" state="m"/>
    <connection from=":B_22" to="BE" fromLane="0" toLane="1" dir="l" state="M"/>
    <connection from=":B_9" to="BC" fromLane="0" toLane="1" via=":B_23_0" dir="t" state="m"/>
    <connection from=":B_23" to="BC" fromLane="0" toLane="1" dir="t" state="M"/>
    <connection from=":B_10" to="BC" fromLane="0" toLane="0" dir="r" state="M"/>
    <connection from=":B_11" to="BD" fromLane="0" toLane="0" dir="s" state="M"/>
    <connection from=":B_11" to="BD" fromLane="1" toLane="1" dir="s" state="M"/>
    <connection from=":B_13" to="BA" fromLane="0" toLane="1" via=":B_24_0" dir="l" state="m"/>
    <connection from=":B_24" to="BA" fromLane="0" toLane="1" dir="l" state="M"/>
    <connection from=":B_14" to="BE" fromLane="0" toLane="1" via=":B_25_0" dir="t" state="m"/>
    <connection from=":B_25" to="BE" fromLane="0" toLane="1" dir="t" state="M"/>
    <connection from=":B_15" to="BE" fromLane="0" toLane="0" dir="r" state="M"/>
    <connection from=":B_16" to="BC" fromLane="0" toLane="0" dir="s" state="M"/>
    <connection from=":B_16" to="BC" fromLane="1" toLane="1" dir="s" state="M"/>
    <connection from=":B_18" to="BD" fromLane="0" toLane="1" via=":B_26_0" dir="l" state="m"/>
    <connection from=":B_26" to="BD" fromLane="0" toLane="1" dir="l" state="M"/>
    <connection from=":B_19" to="BA" fromLane="0" toLane="1" via=":B_27_0" dir="t" state="m"/>
    <connection from=":B_27" to="BA" fromLane="0" toLane="1" dir="t" state="M"/>
    <connection from=":C_0" to="CB" fromLane="0" toLane="1" dir="t" state="M"/>
    <connection from=":D_0" to="DB" fromLane="0" toLane="1" dir="t" state="M"/>
    <connection from=":E_0" to="EB" fromLane="0" toLane="1" dir="t" state="M"/>

</net>
