<?xml version="1.0" encoding="UTF-8"?>

<!-- generated on 2025-03-30 11:38:43.501806 by randomTrips.py v1_22_0+0002-63e50f52594
<configuration>
    <net-file value="traffic_dataset\scenario_0\network.net.xml"/>
    <output-trip-file value="traffic_dataset\scenario_0\routes.rou.xml"/>
    <vehicle-class value="passenger"/>
    <fringe-factor value="10"/>
    <allow-fringe value="True"/>
    <validate value="True"/>
    <period value="3.9104670502544563"/>
</configuration>
-->

<!-- generated on 2025-03-30 11:38:43 by Eclipse SUMO duarouter Version 1.22.0
<duarouterConfiguration xmlns:xsi="http://www.w3.org/2001/XMLSchema-instance" xsi:noNamespaceSchemaLocation="http://sumo.dlr.de/xsd/duarouterConfiguration.xsd">

    <input>
        <net-file value="traffic_dataset\scenario_0\network.net.xml"/>
        <route-files value="traffic_dataset\scenario_0\routes.rou.xml"/>
    </input>

    <output>
        <output-file value="traffic_dataset\scenario_0\routes.rou.xml.tmp"/>
        <alternatives-output value="NUL"/>
        <write-trips value="true"/>
    </output>

    <time>
        <begin value="0"/>
        <end value="3600.0"/>
    </time>

    <report>
        <no-warnings value="true"/>
        <ignore-errors value="true"/>
        <no-step-log value="true"/>
    </report>

</duarouterConfiguration>
-->

<routes xmlns:xsi="http://www.w3.org/2001/XMLSchema-instance" xsi:noNamespaceSchemaLocation="http://sumo.dlr.de/xsd/routes_file.xsd">
    <vType id="passenger" vClass="passenger"/>
    <trip id="0" type="passenger" depart="0.00" from="DB" to="BA"/>
    <trip id="1" type="passenger" depart="3.91" from="BD" to="BA"/>
    <trip id="2" type="passenger" depart="7.82" from="DB" to="BD"/>
    <trip id="3" type="passenger" depart="11.73" from="EB" to="BA"/>
    <trip id="4" type="passenger" depart="15.64" from="CB" to="BA"/>
    <trip id="5" type="passenger" depart="19.55" from="AB" to="BD"/>
    <trip id="6" type="passenger" depart="23.46" from="AB" to="BA"/>
    <trip id="7" type="passenger" depart="27.37" from="DB" to="BD"/>
    <trip id="8" type="passenger" depart="31.28" from="AB" to="BD"/>
    <trip id="9" type="passenger" depart="35.19" from="EB" to="AB"/>
    <trip id="10" type="passenger" depart="39.10" from="EB" to="BD"/>
    <trip id="11" type="passenger" depart="43.02" from="CB" to="BA"/>
    <trip id="12" type="passenger" depart="46.93" from="EB" to="BC"/>
    <trip id="13" type="passenger" depart="50.84" from="AB" to="BA"/>
    <trip id="14" type="passenger" depart="54.75" from="EB" to="BD"/>
    <trip id="15" type="passenger" depart="58.66" from="EB" to="BE"/>
    <trip id="16" type="passenger" depart="62.57" from="CB" to="DB"/>
    <trip id="17" type="passenger" depart="66.48" from="CB" to="BD"/>
    <trip id="18" type="passenger" depart="70.39" from="EB" to="BD"/>
    <trip id="19" type="passenger" depart="74.30" from="EB" to="BD"/>
    <trip id="20" type="passenger" depart="78.21" from="DB" to="BA"/>
    <trip id="21" type="passenger" depart="82.12" from="BA" to="BC"/>
    <trip id="22" type="passenger" depart="86.03" from="AB" to="BA"/>
    <trip id="23" type="passenger" depart="89.94" from="AB" to="BC"/>
    <trip id="24" type="passenger" depart="93.85" from="DB" to="BC"/>
    <trip id="25" type="passenger" depart="97.76" from="CB" to="BA"/>
    <trip id="26" type="passenger" depart="101.67" from="BC" to="CB"/>
    <trip id="27" type="passenger" depart="105.58" from="DB" to="BD"/>
    <trip id="28" type="passenger" depart="109.49" from="AB" to="BE"/>
    <trip id="29" type="passenger" depart="113.40" from="AB" to="BC"/>
    <trip id="30" type="passenger" depart="117.31" from="EB" to="BD"/>
    <trip id="31" type="passenger" depart="121.22" from="DB" to="BD"/>
    <trip id="32" type="passenger" depart="125.13" from="EB" to="BE"/>
    <trip id="33" type="passenger" depart="129.05" from="BA" to="BA"/>
    <trip id="34" type="passenger" depart="132.96" from="BE" to="BC"/>
    <trip id="35" type="passenger" depart="136.87" from="AB" to="CB"/>
    <trip id="36" type="passenger" depart="140.78" from="EB" to="BC"/>
    <trip id="37" type="passenger" depart="144.69" from="DB" to="BC"/>
    <trip id="38" type="passenger" depart="148.60" from="EB" to="BC"/>
    <trip id="39" type="passenger" depart="152.51" from="BC" to="BA"/>
    <trip id="40" type="passenger" depart="156.42" from="DB" to="BC"/>
    <trip id="41" type="passenger" depart="160.33" from="DB" to="BE"/>
    <trip id="42" type="passenger" depart="164.24" from="CB" to="BA"/>
    <trip id="43" type="passenger" depart="168.15" from="EB" to="BD"/>
    <trip id="44" type="passenger" depart="172.06" from="AB" to="BA"/>
    <trip id="45" type="passenger" depart="175.97" from="AB" to="BD"/>
    <trip id="46" type="passenger" depart="179.88" from="EB" to="BC"/>
    <trip id="47" type="passenger" depart="183.79" from="AB" to="BC"/>
    <trip id="48" type="passenger" depart="187.70" from="EB" to="BD"/>
    <trip id="49" type="passenger" depart="191.61" from="EB" to="BE"/>
    <trip id="50" type="passenger" depart="195.52" from="AB" to="BE"/>
    <trip id="51" type="passenger" depart="199.43" from="DB" to="BD"/>
    <trip id="52" type="passenger" depart="203.34" from="BC" to="BD"/>
    <trip id="53" type="passenger" depart="207.25" from="AB" to="BC"/>
    <trip id="54" type="passenger" depart="211.17" from="CB" to="CB"/>
    <trip id="55" type="passenger" depart="215.08" from="EB" to="BC"/>
    <trip id="56" type="passenger" depart="218.99" from="CB" to="BA"/>
    <trip id="57" type="passenger" depart="222.90" from="EB" to="BE"/>
    <trip id="58" type="passenger" depart="226.81" from="BE" to="BD"/>
    <trip id="59" type="passenger" depart="230.72" from="DB" to="BA"/>
    <trip id="60" type="passenger" depart="234.63" from="DB" to="BD"/>
    <trip id="61" type="passenger" depart="238.54" from="EB" to="BD"/>
    <trip id="62" type="passenger" depart="242.45" from="AB" to="BC"/>
    <trip id="63" type="passenger" depart="246.36" from="AB" to="BE"/>
    <trip id="64" type="passenger" depart="250.27" from="EB" to="BE"/>
    <trip id="65" type="passenger" depart="254.18" from="BE" to="BA"/>
    <trip id="66" type="passenger" depart="258.09" from="EB" to="CB"/>
    <trip id="67" type="passenger" depart="262.00" from="AB" to="BD"/>
    <trip id="68" type="passenger" depart="265.91" from="AB" to="BE"/>
    <trip id="69" type="passenger" depart="269.82" from="DB" to="BA"/>
    <trip id="70" type="passenger" depart="273.73" from="CB" to="BD"/>
    <trip id="71" type="passenger" depart="277.64" from="BC" to="BE"/>
    <trip id="72" type="passenger" depart="281.55" from="CB" to="BA"/>
    <trip id="73" type="passenger" depart="285.46" from="CB" to="BE"/>
    <trip id="74" type="passenger" depart="289.37" from="AB" to="BC"/>
    <trip id="75" type="passenger" depart="293.29" from="EB" to="BD"/>
    <trip id="76" type="passenger" depart="297.20" from="CB" to="BD"/>
    <trip id="77" type="passenger" depart="301.11" from="AB" to="BA"/>
    <trip id="78" type="passenger" depart="305.02" from="CB" to="BD"/>
    <trip id="79" type="passenger" depart="308.93" from="BA" to="BA"/>
    <trip id="80" type="passenger" depart="312.84" from="AB" to="BD"/>
    <trip id="81" type="passenger" depart="316.75" from="BA" to="BE"/>
    <trip id="82" type="passenger" depart="320.66" from="EB" to="BA"/>
    <trip id="83" type="passenger" depart="324.57" from="BA" to="BD"/>
    <trip id="84" type="passenger" depart="328.48" from="AB" to="BA"/>
    <trip id="85" type="passenger" depart="332.39" from="EB" to="BD"/>
    <trip id="86" type="passenger" depart="336.30" from="CB" to="BE"/>
    <trip id="87" type="passenger" depart="340.21" from="EB" to="BA"/>
    <trip id="88" type="passenger" depart="344.12" from="AB" to="BC"/>
    <trip id="89" type="passenger" depart="348.03" from="CB" to="BC"/>
    <trip id="90" type="passenger" depart="351.94" from="DB" to="BD"/>
    <trip id="91" type="passenger" depart="355.85" from="EB" to="BA"/>
    <trip id="92" type="passenger" depart="359.76" from="CB" to="BC"/>
    <trip id="93" type="passenger" depart="363.67" from="EB" to="BA"/>
    <trip id="94" type="passenger" depart="367.58" from="AB" to="BC"/>
    <trip id="95" type="passenger" depart="371.49" from="CB" to="BC"/>
    <trip id="96" type="passenger" depart="375.40" from="BA" to="BE"/>
    <trip id="97" type="passenger" depart="379.32" from="CB" to="BE"/>
    <trip id="98" type="passenger" depart="383.23" from="DB" to="BA"/>
    <trip id="99" type="passenger" depart="387.14" from="EB" to="BE"/>
    <trip id="100" type="passenger" depart="391.05" from="EB" to="BE"/>
    <trip id="101" type="passenger" depart="394.96" from="EB" to="BA"/>
    <trip id="102" type="passenger" depart="398.87" from="CB" to="BA"/>
    <trip id="103" type="passenger" depart="402.78" from="CB" to="BA"/>
    <trip id="104" type="passenger" depart="406.69" from="CB" to="EB"/>
    <trip id="105" type="passenger" depart="410.60" from="BC" to="BE"/>
    <trip id="106" type="passenger" depart="414.51" from="CB" to="BC"/>
    <trip id="107" type="passenger" depart="418.42" from="EB" to="EB"/>
    <trip id="108" type="passenger" depart="422.33" from="DB" to="BE"/>
    <trip id="109" type="passenger" depart="426.24" from="AB" to="BC"/>
    <trip id="110" type="passenger" depart="430.15" from="EB" to="BD"/>
    <trip id="111" type="passenger" depart="434.06" from="CB" to="BE"/>
    <trip id="112" type="passenger" depart="437.97" from="AB" to="BD"/>
    <trip id="113" type="passenger" depart="441.88" from="CB" to="BE"/>
    <trip id="114" type="passenger" depart="445.79" from="AB" to="DB"/>
    <trip id="115" type="passenger" depart="449.70" from="AB" to="BA"/>
    <trip id="116" type="passenger" depart="453.61" from="DB" to="BD"/>
    <trip id="117" type="passenger" depart="457.52" from="BA" to="BA"/>
    <trip id="118" type="passenger" depart="461.44" from="EB" to="BA"/>
    <trip id="119" type="passenger" depart="465.35" from="DB" to="BD"/>
    <trip id="120" type="passenger" depart="469.26" from="CB" to="BD"/>
    <trip id="121" type="passenger" depart="473.17" from="CB" to="CB"/>
    <trip id="122" type="passenger" depart="477.08" from="AB" to="BE"/>
    <trip id="123" type="passenger" depart="480.99" from="BA" to="BC"/>
    <trip id="124" type="passenger" depart="484.90" from="DB" to="BC"/>
    <trip id="125" type="passenger" depart="488.81" from="BE" to="BE"/>
    <trip id="126" type="passenger" depart="492.72" from="AB" to="BC"/>
    <trip id="127" type="passenger" depart="496.63" from="EB" to="EB"/>
    <trip id="128" type="passenger" depart="500.54" from="AB" to="BA"/>
    <trip id="129" type="passenger" depart="504.45" from="BC" to="CB"/>
    <trip id="130" type="passenger" depart="508.36" from="EB" to="BE"/>
    <trip id="131" type="passenger" depart="512.27" from="CB" to="BA"/>
    <trip id="132" type="passenger" depart="516.18" from="EB" to="BD"/>
    <trip id="133" type="passenger" depart="520.09" from="DB" to="EB"/>
    <trip id="134" type="passenger" depart="524.00" from="DB" to="AB"/>
    <trip id="135" type="passenger" depart="527.91" from="EB" to="BC"/>
    <trip id="136" type="passenger" depart="531.82" from="DB" to="CB"/>
    <trip id="137" type="passenger" depart="535.73" from="AB" to="BA"/>
    <trip id="138" type="passenger" depart="539.64" from="AB" to="BD"/>
    <trip id="139" type="passenger" depart="543.55" from="BC" to="BD"/>
    <trip id="140" type="passenger" depart="547.47" from="DB" to="BA"/>
    <trip id="141" type="passenger" depart="551.38" from="DB" to="BC"/>
    <trip id="142" type="passenger" depart="555.29" from="CB" to="BE"/>
    <trip id="143" type="passenger" depart="559.20" from="EB" to="BA"/>
    <trip id="144" type="passenger" depart="563.11" from="CB" to="BC"/>
    <trip id="145" type="passenger" depart="567.02" from="AB" to="BE"/>
    <trip id="146" type="passenger" depart="570.93" from="DB" to="BC"/>
    <trip id="147" type="passenger" depart="574.84" from="DB" to="BD"/>
    <trip id="148" type="passenger" depart="578.75" from="CB" to="AB"/>
    <trip id="149" type="passenger" depart="582.66" from="AB" to="BE"/>
    <trip id="150" type="passenger" depart="586.57" from="EB" to="BD"/>
    <trip id="151" type="passenger" depart="590.48" from="EB" to="BD"/>
    <trip id="152" type="passenger" depart="594.39" from="AB" to="BA"/>
    <trip id="153" type="passenger" depart="598.30" from="BE" to="BE"/>
    <trip id="154" type="passenger" depart="602.21" from="EB" to="BE"/>
    <trip id="155" type="passenger" depart="606.12" from="EB" to="BA"/>
    <trip id="156" type="passenger" depart="610.03" from="BA" to="BA"/>
    <trip id="157" type="passenger" depart="613.94" from="EB" to="BE"/>
    <trip id="158" type="passenger" depart="617.85" from="CB" to="BD"/>
    <trip id="159" type="passenger" depart="621.76" from="AB" to="BE"/>
    <trip id="160" type="passenger" depart="625.67" from="EB" to="DB"/>
    <trip id="161" type="passenger" depart="629.59" from="EB" to="BE"/>
    <trip id="162" type="passenger" depart="633.50" from="AB" to="BE"/>
    <trip id="163" type="passenger" depart="637.41" from="CB" to="BE"/>
    <trip id="164" type="passenger" depart="641.32" from="EB" to="BE"/>
    <trip id="165" type="passenger" depart="645.23" from="EB" to="BC"/>
    <trip id="166" type="passenger" depart="649.14" from="EB" to="BA"/>
    <trip id="167" type="passenger" depart="653.05" from="EB" to="BE"/>
    <trip id="168" type="passenger" depart="656.96" from="AB" to="BE"/>
    <trip id="169" type="passenger" depart="660.87" from="CB" to="BC"/>
    <trip id="170" type="passenger" depart="664.78" from="EB" to="BA"/>
    <trip id="171" type="passenger" depart="668.69" from="AB" to="BA"/>
    <trip id="172" type="passenger" depart="672.60" from="CB" to="BE"/>
    <trip id="173" type="passenger" depart="676.51" from="EB" to="BC"/>
    <trip id="174" type="passenger" depart="680.42" from="DB" to="BC"/>
    <trip id="175" type="passenger" depart="684.33" from="EB" to="BD"/>
    <trip id="176" type="passenger" depart="688.24" from="EB" to="BA"/>
    <trip id="177" type="passenger" depart="692.15" from="EB" to="BA"/>
    <trip id="178" type="passenger" depart="696.06" from="EB" to="BC"/>
    <trip id="179" type="passenger" depart="699.97" from="AB" to="BC"/>
    <trip id="180" type="passenger" depart="703.88" from="DB" to="BC"/>
    <trip id="181" type="passenger" depart="707.79" from="DB" to="BD"/>
    <trip id="182" type="passenger" depart="711.71" from="CB" to="BD"/>
    <trip id="183" type="passenger" depart="715.62" from="BC" to="BE"/>
    <trip id="184" type="passenger" depart="719.53" from="AB" to="BE"/>
    <trip id="185" type="passenger" depart="723.44" from="CB" to="BE"/>
    <trip id="186" type="passenger" depart="727.35" from="DB" to="BD"/>
    <trip id="187" type="passenger" depart="731.26" from="CB" to="BA"/>
    <trip id="188" type="passenger" depart="735.17" from="DB" to="BC"/>
    <trip id="189" type="passenger" depart="739.08" from="BE" to="BE"/>
    <trip id="190" type="passenger" depart="742.99" from="DB" to="BC"/>
    <trip id="191" type="passenger" depart="746.90" from="BE" to="BC"/>
    <trip id="192" type="passenger" depart="750.81" from="CB" to="BC"/>
    <trip id="193" type="passenger" depart="754.72" from="AB" to="BC"/>
    <trip id="194" type="passenger" depart="758.63" from="EB" to="BD"/>
    <trip id="195" type="passenger" depart="762.54" from="EB" to="BD"/>
    <trip id="196" type="passenger" depart="766.45" from="BE" to="BD"/>
    <trip id="197" type="passenger" depart="770.36" from="AB" to="BC"/>
    <trip id="198" type="passenger" depart="774.27" from="CB" to="BD"/>
    <trip id="199" type="passenger" depart="778.18" from="DB" to="BC"/>
    <trip id="200" type="passenger" depart="782.09" from="CB" to="BA"/>
    <trip id="201" type="passenger" depart="786.00" from="CB" to="BE"/>
    <trip id="202" type="passenger" depart="789.91" from="EB" to="BA"/>
    <trip id="203" type="passenger" depart="793.82" from="AB" to="BD"/>
    <trip id="204" type="passenger" depart="797.74" from="DB" to="BC"/>
    <trip id="205" type="passenger" depart="801.65" from="EB" to="BE"/>
    <trip id="206" type="passenger" depart="805.56" from="DB" to="BA"/>
    <trip id="207" type="passenger" depart="809.47" from="AB" to="BA"/>
    <trip id="208" type="passenger" depart="813.38" from="BA" to="BC"/>
    <trip id="209" type="passenger" depart="817.29" from="EB" to="BA"/>
    <trip id="210" type="passenger" depart="821.20" from="CB" to="BD"/>
    <trip id="211" type="passenger" depart="825.11" from="AB" to="BD"/>
    <trip id="212" type="passenger" depart="829.02" from="CB" to="BA"/>
    <trip id="213" type="passenger" depart="832.93" from="DB" to="AB"/>
    <trip id="214" type="passenger" depart="836.84" from="DB" to="BE"/>
    <trip id="215" type="passenger" depart="840.75" from="AB" to="BC"/>
    <trip id="216" type="passenger" depart="844.66" from="AB" to="DB"/>
    <trip id="217" type="passenger" depart="848.57" from="CB" to="BA"/>
    <trip id="218" type="passenger" depart="852.48" from="BA" to="BE"/>
    <trip id="219" type="passenger" depart="856.39" from="CB" to="BE"/>
    <trip id="220" type="passenger" depart="860.30" from="DB" to="EB"/>
    <trip id="221" type="passenger" depart="864.21" from="DB" to="CB"/>
    <trip id="222" type="passenger" depart="868.12" from="EB" to="BD"/>
    <trip id="223" type="passenger" depart="872.03" from="DB" to="BD"/>
    <trip id="224" type="passenger" depart="875.94" from="EB" to="BD"/>
    <trip id="225" type="passenger" depart="879.86" from="EB" to="BE"/>
    <trip id="226" type="passenger" depart="883.77" from="CB" to="BC"/>
    <trip id="227" type="passenger" depart="887.68" from="BA" to="BD"/>
    <trip id="228" type="passenger" depart="891.59" from="DB" to="BD"/>
    <trip id="229" type="passenger" depart="895.50" from="DB" to="BC"/>
    <trip id="230" type="passenger" depart="899.41" from="AB" to="BC"/>
    <trip id="231" type="passenger" depart="903.32" from="BC" to="BC"/>
    <trip id="232" type="passenger" depart="907.23" from="CB" to="BA"/>
    <trip id="233" type="passenger" depart="911.14" from="BA" to="BD"/>
    <trip id="234" type="passenger" depart="915.05" from="DB" to="BA"/>
    <trip id="235" type="passenger" depart="918.96" from="CB" to="BD"/>
    <trip id="236" type="passenger" depart="922.87" from="CB" to="BA"/>
    <trip id="237" type="passenger" depart="926.78" from="CB" to="BE"/>
    <trip id="238" type="passenger" depart="930.69" from="DB" to="BD"/>
    <trip id="239" type="passenger" depart="934.60" from="EB" to="BE"/>
    <trip id="240" type="passenger" depart="938.51" from="CB" to="AB"/>
    <trip id="241" type="passenger" depart="942.42" from="CB" to="BE"/>
    <trip id="242" type="passenger" depart="946.33" from="EB" to="CB"/>
    <trip id="243" type="passenger" depart="950.24" from="CB" to="BE"/>
    <trip id="244" type="passenger" depart="954.15" from="DB" to="BD"/>
    <trip id="245" type="passenger" depart="958.06" from="AB" to="BA"/>
    <trip id="246" type="passenger" depart="961.97" from="CB" to="BA"/>
    <trip id="247" type="passenger" depart="965.89" from="CB" to="BD"/>
    <trip id="248" type="passenger" depart="969.80" from="CB" to="BA"/>
    <trip id="249" type="passenger" depart="973.71" from="CB" to="BA"/>
    <trip id="250" type="passenger" depart="977.62" from="DB" to="BA"/>
    <trip id="251" type="passenger" depart="981.53" from="CB" to="BD"/>
    <trip id="252" type="passenger" depart="985.44" from="AB" to="BD"/>
    <trip id="253" type="passenger" depart="989.35" from="AB" to="BC"/>
    <trip id="254" type="passenger" depart="993.26" from="AB" to="BC"/>
    <trip id="255" type="passenger" depart="997.17" from="AB" to="BC"/>
    <trip id="256" type="passenger" depart="1001.08" from="DB" to="BC"/>
    <trip id="257" type="passenger" depart="1004.99" from="DB" to="BE"/>
    <trip id="258" type="passenger" depart="1008.90" from="BC" to="BA"/>
    <trip id="259" type="passenger" depart="1012.81" from="AB" to="BD"/>
    <trip id="260" type="passenger" depart="1016.72" from="EB" to="BC"/>
    <trip id="261" type="passenger" depart="1020.63" from="DB" to="BE"/>
    <trip id="262" type="passenger" depart="1024.54" from="DB" to="BE"/>
    <trip id="263" type="passenger" depart="1028.45" from="EB" to="BA"/>
    <trip id="264" type="passenger" depart="1032.36" from="AB" to="BA"/>
    <trip id="265" type="passenger" depart="1036.27" from="AB" to="BD"/>
    <trip id="266" type="passenger" depart="1040.18" from="DB" to="BA"/>
    <trip id="267" type="passenger" depart="1044.09" from="DB" to="BE"/>
    <trip id="268" type="passenger" depart="1048.01" from="AB" to="BD"/>
    <trip id="269" type="passenger" depart="1051.92" from="DB" to="BA"/>
    <trip id="270" type="passenger" depart="1055.83" from="EB" to="DB"/>
    <trip id="271" type="passenger" depart="1059.74" from="AB" to="BA"/>
    <trip id="272" type="passenger" depart="1063.65" from="BE" to="BD"/>
    <trip id="273" type="passenger" depart="1067.56" from="EB" to="BC"/>
    <trip id="274" type="passenger" depart="1071.47" from="DB" to="BA"/>
    <trip id="275" type="passenger" depart="1075.38" from="DB" to="BD"/>
    <trip id="276" type="passenger" depart="1079.29" from="AB" to="BE"/>
    <trip id="277" type="passenger" depart="1083.20" from="EB" to="BD"/>
    <trip id="278" type="passenger" depart="1087.11" from="AB" to="EB"/>
    <trip id="279" type="passenger" depart="1091.02" from="EB" to="BC"/>
    <trip id="280" type="passenger" depart="1094.93" from="CB" to="BC"/>
    <trip id="281" type="passenger" depart="1098.84" from="CB" to="BC"/>
    <trip id="282" type="passenger" depart="1102.75" from="EB" to="BE"/>
    <trip id="283" type="passenger" depart="1106.66" from="AB" to="DB"/>
    <trip id="284" type="passenger" depart="1110.57" from="DB" to="BE"/>
    <trip id="285" type="passenger" depart="1114.48" from="DB" to="BC"/>
    <trip id="286" type="passenger" depart="1118.39" from="DB" to="DB"/>
    <trip id="287" type="passenger" depart="1122.30" from="BC" to="BE"/>
    <trip id="288" type="passenger" depart="1126.21" from="CB" to="BD"/>
    <trip id="289" type="passenger" depart="1130.12" from="CB" to="BE"/>
    <trip id="290" type="passenger" depart="1134.04" from="BC" to="BE"/>
    <trip id="291" type="passenger" depart="1137.95" from="EB" to="BA"/>
    <trip id="292" type="passenger" depart="1141.86" from="EB" to="BA"/>
    <trip id="293" type="passenger" depart="1145.77" from="CB" to="BD"/>
    <trip id="294" type="passenger" depart="1149.68" from="CB" to="BA"/>
    <trip id="295" type="passenger" depart="1153.59" from="EB" to="BA"/>
    <trip id="296" type="passenger" depart="1157.50" from="AB" to="BE"/>
    <trip id="297" type="passenger" depart="1161.41" from="CB" to="BE"/>
    <trip id="298" type="passenger" depart="1165.32" from="DB" to="BC"/>
    <trip id="299" type="passenger" depart="1169.23" from="AB" to="CB"/>
    <trip id="300" type="passenger" depart="1173.14" from="AB" to="BE"/>
    <trip id="301" type="passenger" depart="1177.05" from="CB" to="BE"/>
    <trip id="302" type="passenger" depart="1180.96" from="DB" to="BD"/>
    <trip id="303" type="passenger" depart="1184.87" from="CB" to="BE"/>
    <trip id="304" type="passenger" depart="1188.78" from="AB" to="BA"/>
    <trip id="305" type="passenger" depart="1192.69" from="DB" to="BC"/>
    <trip id="306" type="passenger" depart="1196.60" from="DB" to="BC"/>
    <trip id="307" type="passenger" depart="1200.51" from="CB" to="BC"/>
    <trip id="308" type="passenger" depart="1204.42" from="DB" to="BC"/>
    <trip id="309" type="passenger" depart="1208.33" from="DB" to="BC"/>
    <trip id="310" type="passenger" depart="1212.24" from="BC" to="BA"/>
    <trip id="311" type="passenger" depart="1216.16" from="AB" to="BA"/>
    <trip id="312" type="passenger" depart="1220.07" from="CB" to="BE"/>
    <trip id="313" type="passenger" depart="1223.98" from="AB" to="BA"/>
    <trip id="314" type="passenger" depart="1227.89" from="CB" to="BE"/>
    <trip id="315" type="passenger" depart="1231.80" from="EB" to="BD"/>
    <trip id="316" type="passenger" depart="1235.71" from="BD" to="BA"/>
    <trip id="317" type="passenger" depart="1239.62" from="AB" to="BA"/>
    <trip id="318" type="passenger" depart="1243.53" from="AB" to="AB"/>
    <trip id="319" type="passenger" depart="1247.44" from="CB" to="BC"/>
    <trip id="320" type="passenger" depart="1251.35" from="EB" to="BD"/>
    <trip id="321" type="passenger" depart="1255.26" from="DB" to="BA"/>
    <trip id="322" type="passenger" depart="1259.17" from="EB" to="BD"/>
    <trip id="323" type="passenger" depart="1263.08" from="EB" to="BD"/>
    <trip id="324" type="passenger" depart="1266.99" from="CB" to="BC"/>
    <trip id="325" type="passenger" depart="1270.90" from="AB" to="BA"/>
    <trip id="326" type="passenger" depart="1274.81" from="EB" to="BD"/>
    <trip id="327" type="passenger" depart="1278.72" from="EB" to="BC"/>
    <trip id="328" type="passenger" depart="1282.63" from="AB" to="BD"/>
    <trip id="329" type="passenger" depart="1286.54" from="AB" to="BA"/>
    <trip id="330" type="passenger" depart="1290.45" from="DB" to="BC"/>
    <trip id="331" type="passenger" depart="1294.36" from="EB" to="BA"/>
    <trip id="332" type="passenger" depart="1298.28" from="DB" to="BD"/>
    <trip id="333" type="passenger" depart="1302.19" from="EB" to="BA"/>
    <trip id="334" type="passenger" depart="1306.10" from="CB" to="BC"/>
    <trip id="335" type="passenger" depart="1310.01" from="CB" to="BE"/>
    <trip id="336" type="passenger" depart="1313.92" from="EB" to="BC"/>
    <trip id="337" type="passenger" depart="1317.83" from="DB" to="BD"/>
    <trip id="338" type="passenger" depart="1321.74" from="DB" to="CB"/>
    <trip id="339" type="passenger" depart="1325.65" from="AB" to="BA"/>
    <trip id="340" type="passenger" depart="1329.56" from="DB" to="BA"/>
    <trip id="341" type="passenger" depart="1333.47" from="AB" to="BA"/>
    <trip id="342" type="passenger" depart="1337.38" from="AB" to="BC"/>
    <trip id="343" type="passenger" depart="1341.29" from="DB" to="BC"/>
    <trip id="344" type="passenger" depart="1345.20" from="BA" to="BE"/>
    <trip id="345" type="passenger" depart="1349.11" from="DB" to="BC"/>
    <trip id="346" type="passenger" depart="1353.02" from="DB" to="BE"/>
    <trip id="347" type="passenger" depart="1356.93" from="EB" to="BD"/>
    <trip id="348" type="passenger" depart="1360.84" from="DB" to="CB"/>
    <trip id="349" type="passenger" depart="1364.75" from="CB" to="BD"/>
    <trip id="350" type="passenger" depart="1368.66" from="DB" to="BE"/>
    <trip id="351" type="passenger" depart="1372.57" from="EB" to="BA"/>
    <trip id="352" type="passenger" depart="1376.48" from="AB" to="BC"/>
    <trip id="353" type="passenger" depart="1380.39" from="DB" to="BD"/>
    <trip id="354" type="passenger" depart="1384.31" from="BD" to="BA"/>
    <trip id="355" type="passenger" depart="1388.22" from="DB" to="BD"/>
    <trip id="356" type="passenger" depart="1392.13" from="EB" to="BD"/>
    <trip id="357" type="passenger" depart="1396.04" from="CB" to="BA"/>
    <trip id="358" type="passenger" depart="1399.95" from="AB" to="BC"/>
    <trip id="359" type="passenger" depart="1403.86" from="CB" to="BC"/>
    <trip id="360" type="passenger" depart="1407.77" from="AB" to="DB"/>
    <trip id="361" type="passenger" depart="1411.68" from="EB" to="BD"/>
    <trip id="362" type="passenger" depart="1415.59" from="EB" to="EB"/>
    <trip id="363" type="passenger" depart="1419.50" from="DB" to="BC"/>
    <trip id="364" type="passenger" depart="1423.41" from="AB" to="BE"/>
    <trip id="365" type="passenger" depart="1427.32" from="CB" to="BD"/>
    <trip id="366" type="passenger" depart="1431.23" from="EB" to="BA"/>
    <trip id="367" type="passenger" depart="1435.14" from="DB" to="BD"/>
    <trip id="368" type="passenger" depart="1439.05" from="CB" to="BA"/>
    <trip id="369" type="passenger" depart="1442.96" from="CB" to="BC"/>
    <trip id="370" type="passenger" depart="1446.87" from="DB" to="BE"/>
    <trip id="371" type="passenger" depart="1450.78" from="CB" to="BD"/>
    <trip id="372" type="passenger" depart="1454.69" from="BD" to="CB"/>
    <trip id="373" type="passenger" depart="1458.60" from="EB" to="BD"/>
    <trip id="374" type="passenger" depart="1462.51" from="CB" to="BC"/>
    <trip id="375" type="passenger" depart="1466.43" from="CB" to="DB"/>
    <trip id="376" type="passenger" depart="1470.34" from="CB" to="BD"/>
    <trip id="377" type="passenger" depart="1474.25" from="EB" to="BD"/>
    <trip id="378" type="passenger" depart="1478.16" from="CB" to="BC"/>
    <trip id="379" type="passenger" depart="1482.07" from="AB" to="BC"/>
    <trip id="380" type="passenger" depart="1485.98" from="DB" to="BD"/>
    <trip id="381" type="passenger" depart="1489.89" from="DB" to="BA"/>
    <trip id="382" type="passenger" depart="1493.80" from="DB" to="BE"/>
    <trip id="383" type="passenger" depart="1497.71" from="CB" to="BD"/>
    <trip id="384" type="passenger" depart="1501.62" from="AB" to="DB"/>
    <trip id="385" type="passenger" depart="1505.53" from="DB" to="BA"/>
    <trip id="386" type="passenger" depart="1509.44" from="AB" to="BD"/>
    <trip id="387" type="passenger" depart="1513.35" from="DB" to="BA"/>
    <trip id="388" type="passenger" depart="1517.26" from="EB" to="BE"/>
    <trip id="389" type="passenger" depart="1521.17" from="CB" to="BA"/>
    <trip id="390" type="passenger" depart="1525.08" from="EB" to="BD"/>
    <trip id="391" type="passenger" depart="1528.99" from="DB" to="BD"/>
    <trip id="392" type="passenger" depart="1532.90" from="BD" to="BE"/>
    <trip id="393" type="passenger" depart="1536.81" from="EB" to="BA"/>
    <trip id="394" type="passenger" depart="1540.72" from="DB" to="BC"/>