<?xml version="1.0" encoding="UTF-8"?>

<!-- generated on 2025-03-30 11:38:45 by Eclipse SUMO netconvert Version 1.22.0
<netconvertConfiguration xmlns:xsi="http://www.w3.org/2001/XMLSchema-instance" xsi:noNamespaceSchemaLocation="http://sumo.dlr.de/xsd/netconvertConfiguration.xsd">

    <input>
        <node-files value="traffic_dataset\scenario_3\network.nod.xml"/>
        <edge-files value="traffic_dataset\scenario_3\network.edg.xml"/>
    </input>

    <output>
        <output-file value="traffic_dataset\scenario_3\network.net.xml"/>
    </output>

</netconvertConfiguration>
-->

<net version="1.20" junctionCornerDetail="5" limitTurnSpeed="5.50" xmlns:xsi="http://www.w3.org/2001/XMLSchema-instance" xsi:noNamespaceSchemaLocation="http://sumo.dlr.de/xsd/net_file.xsd">

    <location netOffset="100.00,0.00" convBoundary="0.00,0.00,200.00,100.00" origBoundary="-100.00,0.00,100.00,100.00" projParameter="!"/>

    <edge id=":A_0" function="internal">
        <lane id=":A_0_0" index="0" speed="3.65" length="4.67" shape="0.00,1.60 -1.20,0.80 -1.60,0.00 -1.20,-0.80 0.00,-1.60"/>
    </edge>
    <edge id=":B_0" function="internal">
        <lane id=":B_0_0" index="0" speed="6.51" length="9.03" shape="95.20,10.40 94.85,7.95 93.80,6.20 92.05,5.15 89.60,4.80"/>
        <lane id=":B_0_1" index="1" speed="8.00" length="14.19" shape="98.40,10.40 97.85,6.55 96.20,3.80 93.45,2.15 89.60,1.60"/>
    </edge>
    <edge id=":B_2" function="internal">
        <lane id=":B_2_0" index="0" speed="9.26" length="19.35" shape="98.40,10.40 99.15,5.15 101.40,1.40 105.15,-0.85 110.40,-1.60"/>
    </edge>
    <edge id=":B_3" function="internal">
        <lane id=":B_3_0" index="0" speed="3.65" length="2.34" shape="98.40,10.40 99.20,9.20 100.00,8.80"/>
    </edge>
    <edge id=":B_12" function="internal">
        <lane id=":B_12_0" index="0" speed="3.65" length="2.34" shape="100.00,8.80 100.80,9.20 101.60,10.40"/>
    </edge>
    <edge id=":B_4" function="internal">
        <lane id=":B_4_0" index="0" speed="6.51" length="9.03" shape="110.40,4.80 107.95,5.15 106.20,6.20 105.15,7.95 104.80,10.40"/>
    </edge>
    <edge id=":B_5" function="internal">
        <lane id=":B_5_0" index="0" speed="13.89" length="20.80" shape="110.40,4.80 89.60,4.80"/>
        <lane id=":B_5_1" index="1" speed="13.89" length="20.80" shape="110.40,1.60 89.60,1.60"/>
    </edge>
    <edge id=":B_7" function="internal">
        <lane id=":B_7_0" index="0" speed="3.65" length="1.44" shape="110.40,1.60 109.20,0.80"/>
    </edge>
    <edge id=":B_13" function="internal">
        <lane id=":B_13_0" index="0" speed="3.65" length="3.23" shape="109.20,0.80 108.80,0.00 109.20,-0.80 110.40,-1.60"/>
    </edge>
    <edge id=":B_8" function="internal">
        <lane id=":B_8_0" index="0" speed="13.89" length="20.80" shape="89.60,-4.80 110.40,-4.80"/>
        <lane id=":B_8_1" index="1" speed="13.89" length="20.80" shape="89.60,-1.60 110.40,-1.60"/>
    </edge>
    <edge id=":B_10" function="internal">
        <lane id=":B_10_0" index="0" speed="9.26" length="5.01" shape="89.60,-1.60 94.56,-0.89"/>
    </edge>
    <edge id=":B_11" function="internal">
        <lane id=":B_11_0" index="0" speed="3.65" length="1.44" shape="89.60,-1.60 90.80,-0.80"/>
    </edge>
    <edge id=":B_14" function="internal">
        <lane id=":B_14_0" index="0" speed="9.26" length="14.34" shape="94.56,-0.89 94.85,-0.85 98.60,1.40 100.85,5.15 101.60,10.40"/>
    </edge>
    <edge id=":B_15" function="internal">
        <lane id=":B_15_0" index="0" speed="3.65" length="3.23" shape="90.80,-0.80 91.20,0.00 90.80,0.80 89.60,1.60"/>
    </edge>
    <edge id=":C_0" function="internal">
        <lane id=":C_0_0" index="0" speed="3.65" length="4.67" shape="200.00,-1.60 201.20,-0.80 201.60,0.00 201.20,0.80 200.00,1.60"/>
    </edge>
    <edge id=":D_0" function="internal">
        <lane id=":D_0_0" index="0" speed="3.65" length="4.67" shape="101.60,100.00 100.80,101.20 100.00,101.60 99.20,101.20 98.40,100.00"/>
    </edge>

    <edge id="AB" from="A" to="B" priority="-1">
        <lane id="AB_0" index="0" speed="13.89" length="89.60" shape="0.00,-4.80 89.60,-4.80"/>
        <lane id="AB_1" index="1" speed="13.89" length="89.60" shape="0.00,-1.60 89.60,-1.60"/>
    </edge>
    <edge id="BA" from="B" to="A" priority="-1">
        <lane id="BA_0" index="0" speed="13.89" length="89.60" shape="89.60,4.80 0.00,4.80"/>
        <lane id="BA_1" index="1" speed="13.89" length="89.60" shape="89.60,1.60 0.00,1.60"/>
    </edge>
    <edge id="BC" from="B" to="C" priority="-1">
        <lane id="BC_0" index="0" speed="13.89" length="89.60" shape="110.40,-4.80 200.00,-4.80"/>
        <lane id="BC_1" index="1" speed="13.89" length="89.60" shape="110.40,-1.60 200.00,-1.60"/>
    </edge>
    <edge id="BD" from="B" to="D" priority="-1">
        <lane id="BD_0" index="0" speed="13.89" length="89.60" shape="104.80,10.40 104.80,100.00"/>
        <lane id="BD_1" index="1" speed="13.89" length="89.60" shape="101.60,10.40 101.60,100.00"/>
    </edge>
    <edge id="CB" from="C" to="B" priority="-1">
        <lane id="CB_0" index="0" speed="13.89" length="89.60" shape="200.00,4.80 110.40,4.80"/>
        <lane id="CB_1" index="1" speed="13.89" length="89.60" shape="200.00,1.60 110.40,1.60"/>
    </edge>
    <edge id="DB" from="D" to="B" priority="-1">
        <lane id="DB_0" index="0" speed="13.89" length="89.60" shape="95.20,100.00 95.20,10.40"/>
        <lane id="DB_1" index="1" speed="13.89" length="89.60" shape="98.40,100.00 98.40,10.40"/>
    </edge>

    <tlLogic id="B" type="static" programID="0" offset="0">
        <phase duration="42" state="rrrrGGGgGGgg"/>
        <phase duration="3"  state="rrrrGyyyyyyy"/>
        <phase duration="42" state="GGGgGrrrrrrr"/>
        <phase duration="3"  state="yyyyGrrrrrrr"/>
    </tlLogic>

    <junction id="A" type="priority" x="0.00" y="0.00" incLanes="BA_0 BA_1" intLanes=":A_0_0" shape="0.00,0.00 0.00,6.40 0.00,0.00">
        <request index="0" response="0" foes="0" cont="0"/>
    </junction>
    <junction id="B" type="traffic_light" x="100.00" y="0.00" incLanes="DB_0 DB_1 CB_0 CB_1 AB_0 AB_1" intLanes=":B_0_0 :B_0_1 :B_2_0 :B_12_0 :B_4_0 :B_5_0 :B_5_1 :B_13_0 :B_8_0 :B_8_1 :B_14_0 :B_15_0" shape="93.60,10.40 106.40,10.40 106.84,8.18 107.40,7.40 108.18,6.84 109.18,6.51 110.40,6.40 110.40,-6.40 89.60,-6.40 89.60,6.40 91.82,6.84 92.60,7.40 93.16,8.18 93.49,9.18">
        <request index="0"  response="000001100000" foes="100001100000" cont="0"/>
        <request index="1"  response="000001100000" foes="100001100000" cont="0"/>
        <request index="2"  response="011101100000" foes="011111100000" cont="0"/>
        <request index="3"  response="010000000000" foes="010000000000" cont="1"/>
        <request index="4"  response="000000000000" foes="000000000000" cont="0"/>
        <request index="5"  response="000000000000" foes="110000000111" cont="0"/>
        <request index="6"  response="000000000000" foes="110000000111" cont="0"/>
        <request index="7"  response="001100000100" foes="001100000100" cont="1"/>
        <request index="8"  response="000000000000" foes="000010000100" cont="0"/>
        <request index="9"  response="000000000000" foes="000010000100" cont="0"/>
        <request index="10" response="000001100000" foes="000001101100" cont="1"/>
        <request index="11" response="000001100011" foes="000001100011" cont="1"/>
    </junction>
    <junction id="C" type="priority" x="200.00" y="0.00" incLanes="BC_0 BC_1" intLanes=":C_0_0" shape="200.00,0.00 200.00,-6.40 200.00,0.00">
        <request index="0" response="0" foes="0" cont="0"/>
    </junction>
    <junction id="D" type="priority" x="100.00" y="100.00" incLanes="BD_0 BD_1" intLanes=":D_0_0" shape="100.00,100.00 106.40,100.00 100.00,100.00">
        <request index="0" response="0" foes="0" cont="0"/>
    </junction>

    <junction id=":B_12_0" type="internal" x="100.00" y="8.80" incLanes=":B_3_0 AB_1 CB_0" intLanes=":B_4_0 :B_10_0"/>
    <junction id=":B_13_0" type="internal" x="109.20" y="0.80" incLanes=":B_7_0 AB_0 AB_1 DB_1" intLanes=":B_2_0 :B_8_0 :B_8_1"/>
    <junction id=":B_14_0" type="internal" x="94.56" y="-0.89" incLanes=":B_10_0 CB_0 CB_1" intLanes=":B_2_0 :B_3_0 :B_4_0 :B_5_0 :B_5_1"/>
    <junction id=":B_15_0" type="internal" x="90.80" y="-0.80" incLanes=":B_11_0 CB_0 CB_1 DB_0 DB_1" intLanes=":B_0_0 :B_0_1 :B_5_0 :B_5_1"/>

    <connection from="AB" to="BC" fromLane="0" toLane="0" via=":B_8_0" tl="B" linkIndex="8" dir="s" state="O"/>
    <connection from="AB" to="BC" fromLane="1" toLane="1" via=":B_8_1" tl="B" linkIndex="9" dir="s" state="O"/>
    <connection from="AB" to="BD" fromLane="1" toLane="1" via=":B_10_0" tl="B" linkIndex="10" dir="l" state="o"/>
    <connection from="AB" to="BA" fromLane="1" toLane="1" via=":B_11_0" tl="B" linkIndex="11" dir="t" state="o"/>
    <connection from="BA" to="AB" fromLane="1" toLane="1" via=":A_0_0" dir="t" state="M"/>
    <connection from="BC" to="CB" fromLane="1" toLane="1" via=":C_0_0" dir="t" state="M"/>
    <connection from="BD" to="DB" fromLane="1" toLane="1" via=":D_0_0" dir="t" state="M"/>
    <connection from="CB" to="BD" fromLane="0" toLane="0" via=":B_4_0" tl="B" linkIndex="4" dir="r" state="O"/>
    <connection from="CB" to="BA" fromLane="0" toLane="0" via=":B_5_0" tl="B" linkIndex="5" dir="s" state="O"/>
    <connection from="CB" to="BA" fromLane="1" toLane="1" via=":B_5_1" tl="B" linkIndex="6" dir="s" state="O"/>
    <connection from="CB" to="BC" fromLane="1" toLane="1" via=":B_7_0" tl="B" linkIndex="7" dir="t" state="o"/>
    <connection from="DB" to="BA" fromLane="0" toLane="0" via=":B_0_0" tl="B" linkIndex="0" dir="r" state="o"/>
    <connection from="DB" to="BA" fromLane="1" toLane="1" via=":B_0_1" tl="B" linkIndex="1" dir="r" state="o"/>
    <connection from="DB" to="BC" fromLane="1" toLane="1" via=":B_2_0" tl="B" linkIndex="2" dir="l" state="o"/>
    <connection from="DB" to="BD" fromLane="1" toLane="1" via=":B_3_0" tl="B" linkIndex="3" dir="t" state="o"/>

    <connection from=":A_0" to="AB" fromLane="0" toLane="1" dir="t" state="M"/>
    <connection from=":B_0" to="BA" fromLane="0" toLane="0" dir="r" state="M"/>
    <connection from=":B_0" to="BA" fromLane="1" toLane="1" dir="r" state="M"/>
    <connection from=":B_2" to="BC" fromLane="0" toLane="1" dir="l" state="M"/>
    <connection from=":B_3" to="BD" fromLane="0" toLane="1" via=":B_12_0" dir="t" state="m"/>
    <connection from=":B_12" to="BD" fromLane="0" toLane="1" dir="t" state="M"/>
    <connection from=":B_4" to="BD" fromLane="0" toLane="0" dir="r" state="M"/>
    <connection from=":B_5" to="BA" fromLane="0" toLane="0" dir="s" state="M"/>
    <connection from=":B_5" to="BA" fromLane="1" toLane="1" dir="s" state="M"/>
    <connection from=":B_7" to="BC" fromLane="0" toLane="1" via=":B_13_0" dir="t" state="m"/>
    <connection from=":B_13" to="BC" fromLane="0" toLane="1" dir="t" state="M"/>
    <connection from=":B_8" to="BC" fromLane="0" toLane="0" dir="s" state="M"/>
    <connection from=":B_8" to="BC" fromLane="1" toLane="1" dir="s" state="M"/>
    <connection from=":B_10" to="BD" fromLane="0" toLane="1" via=":B_14_0" dir="l" state="m"/>
    <connection from=":B_14" to="BD" fromLane="0" toLane="1" dir="l" state="M"/>
    <connection from=":B_11" to="BA" fromLane="0" toLane="1" via=":B_15_0" dir="t" state="m"/>
    <connection from=":B_15" to="BA" fromLane="0" toLane="1" dir="t" state="M"/>
    <connection from=":C_0" to="CB" fromLane="0" toLane="1" dir="t" state="M"/>
    <connection from=":D_0" to="DB" fromLane="0" toLane="1" dir="t" state="M"/>

</net>
