<?xml version="1.0" encoding="UTF-8"?>

<!-- generated on 2025-03-30 11:38:46.355022 by randomTrips.py v1_22_0+0002-63e50f52594
<configuration>
    <net-file value="traffic_dataset\scenario_3\network.net.xml"/>
    <output-trip-file value="traffic_dataset\scenario_3\routes.rou.xml"/>
    <vehicle-class value="passenger"/>
    <fringe-factor value="10"/>
    <allow-fringe value="True"/>
    <validate value="True"/>
    <period value="1.552491148178401"/>
</configuration>
-->

<!-- generated on 2025-03-30 11:38:46 by Eclipse SUMO duarouter Version 1.22.0
<duarouterConfiguration xmlns:xsi="http://www.w3.org/2001/XMLSchema-instance" xsi:noNamespaceSchemaLocation="http://sumo.dlr.de/xsd/duarouterConfiguration.xsd">

    <input>
        <net-file value="traffic_dataset\scenario_3\network.net.xml"/>
        <route-files value="traffic_dataset\scenario_3\routes.rou.xml"/>
    </input>

    <output>
        <output-file value="traffic_dataset\scenario_3\routes.rou.xml.tmp"/>
        <alternatives-output value="NUL"/>
        <write-trips value="true"/>
    </output>

    <time>
        <begin value="0"/>
        <end value="3600.0"/>
    </time>

    <report>
        <no-warnings value="true"/>
        <ignore-errors value="true"/>
        <no-step-log value="true"/>
    </report>

</duarouterConfiguration>
-->

<routes xmlns:xsi="http://www.w3.org/2001/XMLSchema-instance" xsi:noNamespaceSchemaLocation="http://sumo.dlr.de/xsd/routes_file.xsd">
    <vType id="passenger" vClass="passenger"/>
    <trip id="0" type="passenger" depart="0.00" from="CB" to="AB"/>
    <trip id="1" type="passenger" depart="1.55" from="AB" to="BA"/>
    <trip id="2" type="passenger" depart="3.10" from="DB" to="BD"/>
    <trip id="3" type="passenger" depart="4.66" from="DB" to="BA"/>
    <trip id="4" type="passenger" depart="6.21" from="CB" to="AB"/>
    <trip id="5" type="passenger" depart="7.76" from="AB" to="BC"/>
    <trip id="6" type="passenger" depart="9.31" from="AB" to="BA"/>
    <trip id="7" type="passenger" depart="10.87" from="CB" to="BC"/>
    <trip id="8" type="passenger" depart="12.42" from="AB" to="BC"/>
    <trip id="9" type="passenger" depart="13.97" from="DB" to="AB"/>
    <trip id="10" type="passenger" depart="15.52" from="DB" to="BD"/>
    <trip id="11" type="passenger" depart="17.08" from="BC" to="BA"/>
    <trip id="12" type="passenger" depart="18.63" from="DB" to="BC"/>
    <trip id="13" type="passenger" depart="20.18" from="AB" to="BA"/>
    <trip id="14" type="passenger" depart="21.73" from="DB" to="BC"/>
    <trip id="15" type="passenger" depart="23.29" from="DB" to="BD"/>
    <trip id="16" type="passenger" depart="24.84" from="CB" to="DB"/>
    <trip id="17" type="passenger" depart="26.39" from="BD" to="BC"/>
    <trip id="18" type="passenger" depart="27.94" from="DB" to="BC"/>
    <trip id="19" type="passenger" depart="29.50" from="DB" to="BC"/>
    <trip id="20" type="passenger" depart="31.05" from="DB" to="BA"/>
    <trip id="21" type="passenger" depart="32.60" from="AB" to="BA"/>
    <trip id="22" type="passenger" depart="34.15" from="AB" to="BA"/>
    <trip id="23" type="passenger" depart="35.71" from="AB" to="BA"/>
    <trip id="24" type="passenger" depart="37.26" from="CB" to="BC"/>
    <trip id="25" type="passenger" depart="38.81" from="BD" to="BA"/>
    <trip id="26" type="passenger" depart="40.36" from="AB" to="BD"/>
    <trip id="27" type="passenger" depart="41.92" from="CB" to="BC"/>
    <trip id="28" type="passenger" depart="43.47" from="AB" to="BD"/>
    <trip id="29" type="passenger" depart="45.02" from="AB" to="BC"/>
    <trip id="30" type="passenger" depart="46.57" from="DB" to="BD"/>
    <trip id="31" type="passenger" depart="48.13" from="CB" to="BD"/>
    <trip id="32" type="passenger" depart="49.68" from="DB" to="BD"/>
    <trip id="33" type="passenger" depart="51.23" from="AB" to="BA"/>
    <trip id="34" type="passenger" depart="52.78" from="BA" to="BA"/>
    <trip id="35" type="passenger" depart="54.34" from="AB" to="CB"/>
    <trip id="36" type="passenger" depart="55.89" from="DB" to="BA"/>
    <trip id="37" type="passenger" depart="57.44" from="CB" to="BC"/>
    <trip id="38" type="passenger" depart="58.99" from="DB" to="BC"/>
    <trip id="39" type="passenger" depart="60.55" from="AB" to="BA"/>
    <trip id="40" type="passenger" depart="62.10" from="CB" to="BA"/>
    <trip id="41" type="passenger" depart="63.65" from="CB" to="BD"/>
    <trip id="42" type="passenger" depart="65.20" from="CB" to="BA"/>
    <trip id="43" type="passenger" depart="66.76" from="DB" to="BC"/>
    <trip id="44" type="passenger" depart="68.31" from="AB" to="BA"/>
    <trip id="45" type="passenger" depart="69.86" from="AB" to="BC"/>
    <trip id="46" type="passenger" depart="71.41" from="DB" to="BC"/>
    <trip id="47" type="passenger" depart="72.97" from="AB" to="BC"/>
    <trip id="48" type="passenger" depart="74.52" from="DB" to="BC"/>
    <trip id="49" type="passenger" depart="76.07" from="DB" to="BD"/>
    <trip id="50" type="passenger" depart="77.62" from="AB" to="BD"/>
    <trip id="51" type="passenger" depart="79.18" from="CB" to="BC"/>
    <trip id="52" type="passenger" depart="80.73" from="AB" to="BD"/>
    <trip id="53" type="passenger" depart="82.28" from="AB" to="BC"/>
    <trip id="54" type="passenger" depart="83.83" from="CB" to="CB"/>
    <trip id="55" type="passenger" depart="85.39" from="DB" to="BA"/>
    <trip id="56" type="passenger" depart="86.94" from="CB" to="BA"/>
    <trip id="57" type="passenger" depart="88.49" from="DB" to="BD"/>
    <trip id="58" type="passenger" depart="90.04" from="AB" to="BD"/>
    <trip id="59" type="passenger" depart="91.60" from="CB" to="BA"/>
    <trip id="60" type="passenger" depart="93.15" from="DB" to="BC"/>
    <trip id="61" type="passenger" depart="94.70" from="DB" to="BC"/>
    <trip id="62" type="passenger" depart="96.25" from="AB" to="BA"/>
    <trip id="63" type="passenger" depart="97.81" from="AB" to="BD"/>
    <trip id="64" type="passenger" depart="99.36" from="DB" to="BD"/>
    <trip id="65" type="passenger" depart="100.91" from="BA" to="BA"/>
    <trip id="66" type="passenger" depart="102.46" from="DB" to="CB"/>
    <trip id="67" type="passenger" depart="104.02" from="AB" to="BC"/>
    <trip id="68" type="passenger" depart="105.57" from="AB" to="BD"/>
    <trip id="69" type="passenger" depart="107.12" from="DB" to="BA"/>
    <trip id="70" type="passenger" depart="108.67" from="CB" to="BC"/>
    <trip id="71" type="passenger" depart="110.23" from="AB" to="BD"/>
    <trip id="72" type="passenger" depart="111.78" from="CB" to="BA"/>
    <trip id="73" type="passenger" depart="113.33" from="CB" to="BD"/>
    <trip id="74" type="passenger" depart="114.88" from="AB" to="BA"/>
    <trip id="75" type="passenger" depart="116.44" from="DB" to="BD"/>
    <trip id="76" type="passenger" depart="117.99" from="CB" to="BC"/>
    <trip id="77" type="passenger" depart="119.54" from="AB" to="BA"/>
    <trip id="78" type="passenger" depart="121.09" from="BC" to="BC"/>
    <trip id="79" type="passenger" depart="122.65" from="AB" to="BA"/>
    <trip id="80" type="passenger" depart="124.20" from="AB" to="BC"/>
    <trip id="81" type="passenger" depart="125.75" from="AB" to="BD"/>
    <trip id="82" type="passenger" depart="127.30" from="DB" to="BA"/>
    <trip id="83" type="passenger" depart="128.86" from="AB" to="BD"/>
    <trip id="84" type="passenger" depart="130.41" from="AB" to="BA"/>
    <trip id="85" type="passenger" depart="131.96" from="DB" to="BC"/>
    <trip id="86" type="passenger" depart="133.51" from="CB" to="BD"/>
    <trip id="87" type="passenger" depart="135.07" from="DB" to="BA"/>
    <trip id="88" type="passenger" depart="136.62" from="AB" to="BC"/>
    <trip id="89" type="passenger" depart="138.17" from="CB" to="BC"/>
    <trip id="90" type="passenger" depart="139.72" from="DB" to="BD"/>
    <trip id="91" type="passenger" depart="141.28" from="DB" to="BA"/>
    <trip id="92" type="passenger" depart="142.83" from="CB" to="BC"/>
    <trip id="93" type="passenger" depart="144.38" from="DB" to="BA"/>
    <trip id="94" type="passenger" depart="145.93" from="AB" to="BC"/>
    <trip id="95" type="passenger" depart="147.49" from="CB" to="BA"/>
    <trip id="96" type="passenger" depart="149.04" from="AB" to="BD"/>
    <trip id="97" type="passenger" depart="150.59" from="CB" to="BD"/>
    <trip id="98" type="passenger" depart="152.14" from="CB" to="BA"/>
    <trip id="99" type="passenger" depart="153.70" from="DB" to="BD"/>
    <trip id="100" type="passenger" depart="155.25" from="DB" to="BD"/>
    <trip id="101" type="passenger" depart="156.80" from="DB" to="BA"/>
    <trip id="102" type="passenger" depart="158.35" from="CB" to="BA"/>
    <trip id="103" type="passenger" depart="159.91" from="CB" to="BA"/>
    <trip id="104" type="passenger" depart="161.46" from="BD" to="DB"/>
    <trip id="105" type="passenger" depart="163.01" from="AB" to="BD"/>
    <trip id="106" type="passenger" depart="164.56" from="CB" to="BC"/>
    <trip id="107" type="passenger" depart="166.12" from="DB" to="DB"/>
    <trip id="108" type="passenger" depart="167.67" from="CB" to="BD"/>
    <trip id="109" type="passenger" depart="169.22" from="AB" to="BA"/>
    <trip id="110" type="passenger" depart="170.77" from="DB" to="BC"/>
    <trip id="111" type="passenger" depart="172.33" from="CB" to="BD"/>
    <trip id="112" type="passenger" depart="173.88" from="AB" to="BC"/>
    <trip id="113" type="passenger" depart="175.43" from="CB" to="BD"/>
    <trip id="114" type="passenger" depart="176.98" from="AB" to="CB"/>
    <trip id="115" type="passenger" depart="178.54" from="AB" to="BA"/>
    <trip id="116" type="passenger" depart="180.09" from="CB" to="BD"/>
    <trip id="117" type="passenger" depart="181.64" from="AB" to="BA"/>
    <trip id="118" type="passenger" depart="183.19" from="DB" to="BA"/>
    <trip id="119" type="passenger" depart="184.75" from="CB" to="BC"/>
    <trip id="120" type="passenger" depart="186.30" from="CB" to="BC"/>
    <trip id="121" type="passenger" depart="187.85" from="CB" to="BD"/>
    <trip id="122" type="passenger" depart="189.40" from="AB" to="BD"/>
    <trip id="123" type="passenger" depart="190.96" from="AB" to="BC"/>
    <trip id="124" type="passenger" depart="192.51" from="CB" to="BA"/>
    <trip id="125" type="passenger" depart="194.06" from="BA" to="BD"/>
    <trip id="126" type="passenger" depart="195.61" from="AB" to="BC"/>
    <trip id="127" type="passenger" depart="197.17" from="DB" to="DB"/>
    <trip id="128" type="passenger" depart="198.72" from="AB" to="BA"/>
    <trip id="129" type="passenger" depart="200.27" from="AB" to="BD"/>
    <trip id="130" type="passenger" depart="201.82" from="DB" to="BD"/>
    <trip id="131" type="passenger" depart="203.38" from="BD" to="BA"/>
    <trip id="132" type="passenger" depart="204.93" from="DB" to="BD"/>
    <trip id="133" type="passenger" depart="206.48" from="CB" to="DB"/>
    <trip id="134" type="passenger" depart="208.03" from="CB" to="AB"/>
    <trip id="135" type="passenger" depart="209.59" from="DB" to="BA"/>
    <trip id="136" type="passenger" depart="211.14" from="CB" to="BD"/>
    <trip id="137" type="passenger" depart="212.69" from="AB" to="BA"/>
    <trip id="138" type="passenger" depart="214.24" from="AB" to="BC"/>
    <trip id="139" type="passenger" depart="215.80" from="AB" to="BC"/>
    <trip id="140" type="passenger" depart="217.35" from="DB" to="BA"/>
    <trip id="141" type="passenger" depart="218.90" from="CB" to="BA"/>
    <trip id="142" type="passenger" depart="220.45" from="CB" to="BD"/>
    <trip id="143" type="passenger" depart="222.01" from="DB" to="BA"/>
    <trip id="144" type="passenger" depart="223.56" from="CB" to="BA"/>
    <trip id="145" type="passenger" depart="225.11" from="AB" to="BD"/>
    <trip id="146" type="passenger" depart="226.66" from="CB" to="BA"/>
    <trip id="147" type="passenger" depart="228.22" from="DB" to="BC"/>
    <trip id="148" type="passenger" depart="229.77" from="CB" to="AB"/>
    <trip id="149" type="passenger" depart="231.32" from="AB" to="BD"/>
    <trip id="150" type="passenger" depart="232.87" from="DB" to="BC"/>
    <trip id="151" type="passenger" depart="234.43" from="DB" to="BC"/>
    <trip id="152" type="passenger" depart="235.98" from="AB" to="BA"/>
    <trip id="153" type="passenger" depart="237.53" from="BA" to="BD"/>
    <trip id="154" type="passenger" depart="239.08" from="DB" to="BD"/>
    <trip id="155" type="passenger" depart="240.64" from="DB" to="BA"/>
    <trip id="156" type="passenger" depart="242.19" from="AB" to="BA"/>
    <trip id="157" type="passenger" depart="243.74" from="DB" to="BD"/>
    <trip id="158" type="passenger" depart="245.29" from="CB" to="BC"/>
    <trip id="159" type="passenger" depart="246.85" from="AB" to="BD"/>
    <trip id="160" type="passenger" depart="248.40" from="DB" to="DB"/>
    <trip id="161" type="passenger" depart="249.95" from="DB" to="BD"/>
    <trip id="162" type="passenger" depart="251.50" from="AB" to="BD"/>
    <trip id="163" type="passenger" depart="253.06" from="BA" to="BD"/>
    <trip id="164" type="passenger" depart="254.61" from="DB" to="BD"/>
    <trip id="165" type="passenger" depart="256.16" from="DB" to="BA"/>
    <trip id="166" type="passenger" depart="257.71" from="DB" to="BA"/>
    <trip id="167" type="passenger" depart="259.27" from="DB" to="BD"/>
    <trip id="168" type="passenger" depart="260.82" from="AB" to="BD"/>
    <trip id="169" type="passenger" depart="262.37" from="CB" to="BA"/>
    <trip id="170" type="passenger" depart="263.92" from="DB" to="BA"/>
    <trip id="171" type="passenger" depart="265.48" from="AB" to="BA"/>
    <trip id="172" type="passenger" depart="267.03" from="BA" to="BD"/>
    <trip id="173" type="passenger" depart="268.58" from="DB" to="BA"/>
    <trip id="174" type="passenger" depart="270.13" from="CB" to="BC"/>
    <trip id="175" type="passenger" depart="271.69" from="DB" to="BC"/>
    <trip id="176" type="passenger" depart="273.24" from="DB" to="BA"/>
    <trip id="177" type="passenger" depart="274.79" from="DB" to="BA"/>
    <trip id="178" type="passenger" depart="276.34" from="DB" to="BA"/>
    <trip id="179" type="passenger" depart="277.90" from="AB" to="BC"/>
    <trip id="180" type="passenger" depart="279.45" from="DB" to="BA"/>
    <trip id="181" type="passenger" depart="281.00" from="CB" to="BC"/>
    <trip id="182" type="passenger" depart="282.55" from="BD" to="BC"/>
    <trip id="183" type="passenger" depart="284.11" from="AB" to="BD"/>
    <trip id="184" type="passenger" depart="285.66" from="AB" to="BD"/>
    <trip id="185" type="passenger" depart="287.21" from="CB" to="BD"/>
    <trip id="186" type="passenger" depart="288.76" from="DB" to="BD"/>
    <trip id="187" type="passenger" depart="290.32" from="BD" to="BA"/>
    <trip id="188" type="passenger" depart="291.87" from="CB" to="BA"/>
    <trip id="189" type="passenger" depart="293.42" from="BA" to="BD"/>
    <trip id="190" type="passenger" depart="294.97" from="DB" to="BA"/>
    <trip id="191" type="passenger" depart="296.53" from="BA" to="BC"/>
    <trip id="192" type="passenger" depart="298.08" from="CB" to="BA"/>
    <trip id="193" type="passenger" depart="299.63" from="AB" to="BC"/>
    <trip id="194" type="passenger" depart="301.18" from="DB" to="BD"/>
    <trip id="195" type="passenger" depart="302.74" from="DB" to="BC"/>
    <trip id="196" type="passenger" depart="304.29" from="AB" to="BC"/>
    <trip id="197" type="passenger" depart="305.84" from="AB" to="BA"/>
    <trip id="198" type="passenger" depart="307.39" from="CB" to="BC"/>
    <trip id="199" type="passenger" depart="308.95" from="CB" to="BC"/>
    <trip id="200" type="passenger" depart="310.50" from="CB" to="BA"/>
    <trip id="201" type="passenger" depart="312.05" from="CB" to="BD"/>
    <trip id="202" type="passenger" depart="313.60" from="DB" to="BA"/>
    <trip id="203" type="passenger" depart="315.16" from="AB" to="BC"/>
    <trip id="204" type="passenger" depart="316.71" from="CB" to="BC"/>
    <trip id="205" type="passenger" depart="318.26" from="DB" to="BD"/>
    <trip id="206" type="passenger" depart="319.81" from="CB" to="BA"/>
    <trip id="207" type="passenger" depart="321.37" from="AB" to="AB"/>
    <trip id="208" type="passenger" depart="322.92" from="AB" to="BC"/>
    <trip id="209" type="passenger" depart="324.47" from="DB" to="BA"/>
    <trip id="210" type="passenger" depart="326.02" from="CB" to="BC"/>
    <trip id="211" type="passenger" depart="327.58" from="AB" to="BD"/>
    <trip id="212" type="passenger" depart="329.13" from="CB" to="BA"/>
    <trip id="213" type="passenger" depart="330.68" from="CB" to="AB"/>
    <trip id="214" type="passenger" depart="332.23" from="DB" to="BD"/>
    <trip id="215" type="passenger" depart="333.79" from="AB" to="BC"/>
    <trip id="216" type="passenger" depart="335.34" from="AB" to="CB"/>
    <trip id="217" type="passenger" depart="336.89" from="CB" to="BA"/>
    <trip id="218" type="passenger" depart="338.44" from="AB" to="BD"/>
    <trip id="219" type="passenger" depart="340.00" from="CB" to="BD"/>
    <trip id="220" type="passenger" depart="341.55" from="CB" to="DB"/>
    <trip id="221" type="passenger" depart="343.10" from="CB" to="CB"/>
    <trip id="222" type="passenger" depart="344.65" from="DB" to="BC"/>
    <trip id="223" type="passenger" depart="346.21" from="DB" to="BC"/>
    <trip id="224" type="passenger" depart="347.76" from="DB" to="BC"/>
    <trip id="225" type="passenger" depart="349.31" from="DB" to="BD"/>
    <trip id="226" type="passenger" depart="350.86" from="CB" to="BA"/>
    <trip id="227" type="passenger" depart="352.42" from="AB" to="BD"/>
    <trip id="228" type="passenger" depart="353.97" from="DB" to="BC"/>
    <trip id="229" type="passenger" depart="355.52" from="CB" to="BA"/>
    <trip id="230" type="passenger" depart="357.07" from="AB" to="BA"/>
    <trip id="231" type="passenger" depart="358.63" from="AB" to="BA"/>
    <trip id="232" type="passenger" depart="360.18" from="CB" to="BA"/>
    <trip id="233" type="passenger" depart="361.73" from="AB" to="BD"/>
    <trip id="234" type="passenger" depart="363.28" from="DB" to="BA"/>
    <trip id="235" type="passenger" depart="364.84" from="CB" to="BC"/>
    <trip id="236" type="passenger" depart="366.39" from="CB" to="BA"/>
    <trip id="237" type="passenger" depart="367.94" from="CB" to="BD"/>
    <trip id="238" type="passenger" depart="369.49" from="CB" to="BD"/>
    <trip id="239" type="passenger" depart="371.05" from="DB" to="BD"/>
    <trip id="240" type="passenger" depart="372.60" from="BD" to="AB"/>
    <trip id="241" type="passenger" depart="374.15" from="BC" to="BD"/>
    <trip id="242" type="passenger" depart="375.70" from="DB" to="CB"/>
    <trip id="243" type="passenger" depart="377.26" from="CB" to="BD"/>
    <trip id="244" type="passenger" depart="378.81" from="CB" to="BC"/>
    <trip id="245" type="passenger" depart="380.36" from="AB" to="BA"/>
    <trip id="246" type="passenger" depart="381.91" from="CB" to="AB"/>
    <trip id="247" type="passenger" depart="383.47" from="BC" to="BD"/>
    <trip id="248" type="passenger" depart="385.02" from="CB" to="BA"/>
    <trip id="249" type="passenger" depart="386.57" from="CB" to="BA"/>
    <trip id="250" type="passenger" depart="388.12" from="CB" to="AB"/>
    <trip id="251" type="passenger" depart="389.68" from="CB" to="BC"/>
    <trip id="252" type="passenger" depart="391.23" from="AB" to="BD"/>
    <trip id="253" type="passenger" depart="392.78" from="AB" to="BC"/>
    <trip id="254" type="passenger" depart="394.33" from="AB" to="BC"/>
    <trip id="255" type="passenger" depart="395.89" from="AB" to="BA"/>
    <trip id="256" type="passenger" depart="397.44" from="DB" to="BC"/>
    <trip id="257" type="passenger" depart="398.99" from="DB" to="BD"/>
    <trip id="258" type="passenger" depart="400.54" from="AB" to="BA"/>
    <trip id="259" type="passenger" depart="402.10" from="AB" to="BC"/>
    <trip id="260" type="passenger" depart="403.65" from="DB" to="BC"/>
    <trip id="261" type="passenger" depart="405.20" from="CB" to="BD"/>
    <trip id="262" type="passenger" depart="406.75" from="CB" to="BD"/>
    <trip id="263" type="passenger" depart="408.31" from="DB" to="BA"/>
    <trip id="264" type="passenger" depart="409.86" from="AB" to="BA"/>
    <trip id="265" type="passenger" depart="411.41" from="AB" to="BD"/>
    <trip id="266" type="passenger" depart="412.96" from="CB" to="BA"/>
    <trip id="267" type="passenger" depart="414.52" from="DB" to="BD"/>
    <trip id="268" type="passenger" depart="416.07" from="AB" to="BC"/>
    <trip id="269" type="passenger" depart="417.62" from="DB" to="BA"/>
    <trip id="270" type="passenger" depart="419.17" from="DB" to="CB"/>
    <trip id="271" type="passenger" depart="420.73" from="AB" to="AB"/>
    <trip id="272" type="passenger" depart="422.28" from="BA" to="BD"/>
    <trip id="273" type="passenger" depart="423.83" from="DB" to="BC"/>
    <trip id="274" type="passenger" depart="425.38" from="DB" to="BA"/>
    <trip id="275" type="passenger" depart="426.94" from="CB" to="BC"/>
    <trip id="276" type="passenger" depart="428.49" from="AB" to="BD"/>
    <trip id="277" type="passenger" depart="430.04" from="DB" to="BC"/>
    <trip id="278" type="passenger" depart="431.59" from="AB" to="DB"/>
    <trip id="279" type="passenger" depart="433.15" from="DB" to="BC"/>
    <trip id="280" type="passenger" depart="434.70" from="CB" to="BC"/>
    <trip id="281" type="passenger" depart="436.25" from="CB" to="BC"/>
    <trip id="282" type="passenger" depart="437.80" from="DB" to="BD"/>
    <trip id="283" type="passenger" depart="439.35" from="AB" to="CB"/>
    <trip id="284" type="passenger" depart="440.91" from="CB" to="BD"/>
    <trip id="285" type="passenger" depart="442.46" from="DB" to="BC"/>
    <trip id="286" type="passenger" depart="444.01" from="DB" to="CB"/>
    <trip id="287" type="passenger" depart="445.56" from="AB" to="BD"/>
    <trip id="288" type="passenger" depart="447.12" from="CB" to="BC"/>
    <trip id="289" type="passenger" depart="448.67" from="CB" to="BD"/>
    <trip id="290" type="passenger" depart="450.22" from="AB" to="BD"/>
    <trip id="291" type="passenger" depart="451.77" from="DB" to="BA"/>
    <trip id="292" type="passenger" depart="453.33" from="DB" to="BA"/>
    <trip id="293" type="passenger" depart="454.88" from="CB" to="BC"/>
    <trip id="294" type="passenger" depart="456.43" from="BD" to="AB"/>
    <trip id="295" type="passenger" depart="457.98" from="DB" to="BA"/>
    <trip id="296" type="passenger" depart="459.54" from="AB" to="BD"/>
    <trip id="297" type="passenger" depart="461.09" from="BC" to="BD"/>
    <trip id="298" type="passenger" depart="462.64" from="DB" to="BA"/>
    <trip id="299" type="passenger" depart="464.19" from="AB" to="CB"/>
    <trip id="300" type="passenger" depart="465.75" from="AB" to="BD"/>
    <trip id="301" type="passenger" depart="467.30" from="CB" to="BD"/>
    <trip id="302" type="passenger" depart="468.85" from="CB" to="BD"/>
    <trip id="303" type="passenger" depart="470.40" from="CB" to="BD"/>
    <trip id="304" type="passenger" depart="471.96" from="AB" to="BA"/>
    <trip id="305" type="passenger" depart="473.51" from="CB" to="BA"/>
    <trip id="306" type="passenger" depart="475.06" from="CB" to="BC"/>
    <trip id="307" type="passenger" depart="476.61" from="CB" to="BC"/>
    <trip id="308" type="passenger" depart="478.17" from="DB" to="BA"/>
    <trip id="309" type="passenger" depart="479.72" from="DB" to="BA"/>
    <trip id="310" type="passenger" depart="481.27" from="AB" to="BA"/>
    <trip id="311" type="passenger" depart="482.82" from="AB" to="BA"/>
    <trip id="312" type="passenger" depart="484.38" from="CB" to="BD"/>
    <trip id="313" type="passenger" depart="485.93" from="AB" to="BA"/>
    <trip id="314" type="passenger" depart="487.48" from="CB" to="BD"/>
    <trip id="315" type="passenger" depart="489.03" from="DB" to="BC"/>
    <trip id="316" type="passenger" depart="490.59" from="AB" to="BA"/>
    <trip id="317" type="passenger" depart="492.14" from="AB" to="BA"/>
    <trip id="318" type="passenger" depart="493.69" from="AB" to="AB"/>
    <trip id="319" type="passenger" depart="495.24" from="CB" to="BA"/>
    <trip id="320" type="passenger" depart="496.80" from="DB" to="BC"/>
    <trip id="321" type="passenger" depart="498.35" from="DB" to="BA"/>
    <trip id="322" type="passenger" depart="499.90" from="DB" to="BC"/>
    <trip id="323" type="passenger" depart="501.45" from="DB" to="BC"/>
    <trip id="324" type="passenger" depart="503.01" from="CB" to="BC"/>
    <trip id="325" type="passenger" depart="504.56" from="AB" to="BA"/>
    <trip id="326" type="passenger" depart="506.11" from="DB" to="BC"/>
    <trip id="327" type="passenger" depart="507.66" from="DB" to="BC"/>
    <trip id="328" type="passenger" depart="509.22" from="AB" to="BC"/>
    <trip id="329" type="passenger" depart="510.77" from="AB" to="BA"/>
    <trip id="330" type="passenger" depart="512.32" from="CB" to="BA"/>
    <trip id="331" type="passenger" depart="513.87" from="DB" to="BA"/>
    <trip id="332" type="passenger" depart="515.43" from="DB" to="BC"/>
    <trip id="333" type="passenger" depart="516.98" from="DB" to="BA"/>
    <trip id="334" type="passenger" depart="518.53" from="CB" to="BC"/>
    <trip id="335" type="passenger" depart="520.08" from="CB" to="BD"/>
    <trip id="336" type="passenger" depart="521.64" from="DB" to="BA"/>
    <trip id="337" type="passenger" depart="523.19" from="CB" to="BC"/>
    <trip id="338" type="passenger" depart="524.74" from="DB" to="CB"/>
    <trip id="339" type="passenger" depart="526.29" from="AB" to="BA"/>
    <trip id="340" type="passenger" depart="527.85" from="CB" to="BA"/>
    <trip id="341" type="passenger" depart="529.40" from="AB" to="BA"/>
    <trip id="342" type="passenger" depart="530.95" from="AB" to="BC"/>
    <trip id="343" type="passenger" depart="532.50" from="CB" to="BA"/>
    <trip id="344" type="passenger" depart="534.06" from="AB" to="BD"/>
    <trip id="345" type="passenger" depart="535.61" from="DB" to="BC"/>
    <trip id="346" type="passenger" depart="537.16" from="CB" to="BD"/>
    <trip id="347" type="passenger" depart="538.71" from="DB" to="BC"/>
    <trip id="348" type="passenger" depart="540.27" from="CB" to="BD"/>
    <trip id="349" type="passenger" depart="541.82" from="CB" to="BC"/>
    <trip id="350" type="passenger" depart="543.37" from="CB" to="BD"/>
    <trip id="351" type="passenger" depart="544.92" from="DB" to="BA"/>
    <trip id="352" type="passenger" depart="546.48" from="AB" to="BA"/>
    <trip id="353" type="passenger" depart="548.03" from="DB" to="BC"/>
    <trip id="354" type="passenger" depart="549.58" from="AB" to="BA"/>
    <trip id="355" type="passenger" depart="551.13" from="CB" to="BD"/>
    <trip id="356" type="passenger" depart="552.69" from="DB" to="BC"/>
    <trip id="357" type="passenger" depart="554.24" from="CB" to="BA"/>
    <trip id="358" type="passenger" depart="555.79" from="AB" to="BC"/>
    <trip id="359" type="passenger" depart="557.34" from="BA" to="BA"/>
    <trip id="360" type="passenger" depart="558.90" from="AB" to="CB"/>
    <trip id="361" type="passenger" depart="560.45" from="DB" to="BC"/>
    <trip id="362" type="passenger" depart="562.00" from="DB" to="DB"/>
    <trip id="363" type="passenger" depart="563.55" from="CB" to="BA"/>
    <trip id="364" type="passenger" depart="565.11" from="AB" to="BD"/>
    <trip id="365" type="passenger" depart="566.66" from="CB" to="BD"/>
    <trip id="366" type="passenger" depart="568.21" from="DB" to="BA"/>
    <trip id="367" type="passenger" depart="569.76" from="CB" to="BC"/>
    <trip id="368" type="passenger" depart="571.32" from="CB" to="BA"/>
    <trip id="369" type="passenger" depart="572.87" from="BC" to="BA"/>
    <trip id="370" type="passenger" depart="574.42" from="CB" to="BD"/>
    <trip id="371" type="passenger" depart="575.97" from="BA" to="BD"/>
    <trip id="372" type="passenger" depart="577.53" from="AB" to="CB"/>
    <trip id="373" type="passenger" depart="579.08" from="DB" to="BC"/>
    <trip id="374" type="passenger" depart="580.63" from="CB" to="BA"/>
    <trip id="375" type="passenger" depart="582.18" from="BA" to="DB"/>
    <trip id="376" type="passenger" depart="583.74" from="CB" to="BC"/>
    <trip id="377" type="passenger" depart="585.29" from="DB" to="BD"/>
    <trip id="378" type="passenger" depart="586.84" from="CB" to="BC"/>
    <trip id="379" type="passenger" depart="588.39" from="AB" to="BC"/>
    <trip id="380" type="passenger" depart="589.95" from="DB" to="BC"/>
    <trip id="381" type="passenger" depart="591.50" from="DB" to="BA"/>
    <trip id="382" type="passenger" depart="593.05" from="CB" to="BD"/>
    <trip id="383" type="passenger" depart="594.60" from="CB" to="BD"/>
    <trip id="384" type="passenger" depart="596.16" from="AB" to="DB"/>
    <trip id="385" type="passenger" depart="597.71" from="CB" to="BA"/>
    <trip id="386" type="passenger" depart="599.26" from="AB" to="BC"/>
    <trip id="387" type="passenger" depart="600.81" from="CB" to="BA"/>
    <trip id="388" type="passenger" depart="602.37" from="DB" to="BD"/>
    <trip id="389" type="passenger" depart="603.92" from="CB" to="BA"/>
    <trip id="390" type="passenger" depart="605.47" from="DB" to="BC"/>
    <trip id="391" type="passenger" depart="607.02" from="DB" to="BC"/>
    <trip id="392" type="passenger" depart="608.58" from="AB" to="BD"/>
    <trip id="393" type="passenger" depart="610.13" from="DB" to="BA"/>
    <trip id="394" type="passenger" depart="611.68" from="CB" to="BC"/>
    <trip id="395" type="passenger" depart="613.23" from="DB" to="BC"/>
    <trip id="396" type="passenger" depart="614.79" from="DB" to="BD"/>
    <trip id="397" type="passenger" depart="616.34" from="AB" to="BD"/>