<?xml version="1.0" encoding="UTF-8"?>

<!-- generated on 2025-03-30 11:38:44.463460 by randomTrips.py v1_22_0+0002-63e50f52594
<configuration>
    <net-file value="traffic_dataset\scenario_1\network.net.xml"/>
    <output-trip-file value="traffic_dataset\scenario_1\routes.rou.xml"/>
    <vehicle-class value="passenger"/>
    <fringe-factor value="10"/>
    <allow-fringe value="True"/>
    <validate value="True"/>
    <period value="1.2743672779584942"/>
</configuration>
-->

<!-- generated on 2025-03-30 11:38:44 by Eclipse SUMO duarouter Version 1.22.0
<duarouterConfiguration xmlns:xsi="http://www.w3.org/2001/XMLSchema-instance" xsi:noNamespaceSchemaLocation="http://sumo.dlr.de/xsd/duarouterConfiguration.xsd">

    <input>
        <net-file value="traffic_dataset\scenario_1\network.net.xml"/>
        <route-files value="traffic_dataset\scenario_1\routes.rou.xml"/>
    </input>

    <output>
        <output-file value="traffic_dataset\scenario_1\routes.rou.xml.tmp"/>
        <alternatives-output value="NUL"/>
        <write-trips value="true"/>
    </output>

    <time>
        <begin value="0"/>
        <end value="3600.0"/>
    </time>

    <report>
        <no-warnings value="true"/>
        <ignore-errors value="true"/>
        <no-step-log value="true"/>
    </report>

</duarouterConfiguration>
-->

<routes xmlns:xsi="http://www.w3.org/2001/XMLSchema-instance" xsi:noNamespaceSchemaLocation="http://sumo.dlr.de/xsd/routes_file.xsd">
    <vType id="passenger" vClass="passenger"/>
    <trip id="0" type="passenger" depart="0.00" from="CB" to="AB"/>
    <trip id="1" type="passenger" depart="1.27" from="AB" to="BA"/>
    <trip id="2" type="passenger" depart="2.55" from="DB" to="BD"/>
    <trip id="3" type="passenger" depart="3.82" from="DB" to="BA"/>
    <trip id="4" type="passenger" depart="5.10" from="CB" to="AB"/>
    <trip id="5" type="passenger" depart="6.37" from="AB" to="BC"/>
    <trip id="6" type="passenger" depart="7.65" from="AB" to="BA"/>
    <trip id="7" type="passenger" depart="8.92" from="CB" to="BC"/>
    <trip id="8" type="passenger" depart="10.19" from="AB" to="BC"/>
    <trip id="9" type="passenger" depart="11.47" from="DB" to="AB"/>
    <trip id="10" type="passenger" depart="12.74" from="DB" to="BD"/>
    <trip id="11" type="passenger" depart="14.02" from="BC" to="BA"/>
    <trip id="12" type="passenger" depart="15.29" from="DB" to="BC"/>
    <trip id="13" type="passenger" depart="16.57" from="AB" to="BA"/>
    <trip id="14" type="passenger" depart="17.84" from="DB" to="BC"/>
    <trip id="15" type="passenger" depart="19.12" from="DB" to="BD"/>
    <trip id="16" type="passenger" depart="20.39" from="CB" to="DB"/>
    <trip id="17" type="passenger" depart="21.66" from="BD" to="BC"/>
    <trip id="18" type="passenger" depart="22.94" from="DB" to="BC"/>
    <trip id="19" type="passenger" depart="24.21" from="DB" to="BC"/>
    <trip id="20" type="passenger" depart="25.49" from="DB" to="BA"/>
    <trip id="21" type="passenger" depart="26.76" from="AB" to="BA"/>
    <trip id="22" type="passenger" depart="28.04" from="AB" to="BA"/>
    <trip id="23" type="passenger" depart="29.31" from="AB" to="BA"/>
    <trip id="24" type="passenger" depart="30.58" from="CB" to="BC"/>
    <trip id="25" type="passenger" depart="31.86" from="BD" to="BA"/>
    <trip id="26" type="passenger" depart="33.13" from="AB" to="BD"/>
    <trip id="27" type="passenger" depart="34.41" from="CB" to="BC"/>
    <trip id="28" type="passenger" depart="35.68" from="AB" to="BD"/>
    <trip id="29" type="passenger" depart="36.96" from="AB" to="BC"/>
    <trip id="30" type="passenger" depart="38.23" from="DB" to="BD"/>
    <trip id="31" type="passenger" depart="39.51" from="CB" to="BD"/>
    <trip id="32" type="passenger" depart="40.78" from="DB" to="BD"/>
    <trip id="33" type="passenger" depart="42.05" from="AB" to="BA"/>
    <trip id="34" type="passenger" depart="43.33" from="BA" to="BA"/>
    <trip id="35" type="passenger" depart="44.60" from="AB" to="CB"/>
    <trip id="36" type="passenger" depart="45.88" from="DB" to="BA"/>
    <trip id="37" type="passenger" depart="47.15" from="CB" to="BC"/>
    <trip id="38" type="passenger" depart="48.43" from="DB" to="BC"/>
    <trip id="39" type="passenger" depart="49.70" from="AB" to="BA"/>
    <trip id="40" type="passenger" depart="50.97" from="CB" to="BA"/>
    <trip id="41" type="passenger" depart="52.25" from="CB" to="BD"/>
    <trip id="42" type="passenger" depart="53.52" from="CB" to="BA"/>
    <trip id="43" type="passenger" depart="54.80" from="DB" to="BC"/>
    <trip id="44" type="passenger" depart="56.07" from="AB" to="BA"/>
    <trip id="45" type="passenger" depart="57.35" from="AB" to="BC"/>
    <trip id="46" type="passenger" depart="58.62" from="DB" to="BC"/>
    <trip id="47" type="passenger" depart="59.90" from="AB" to="BC"/>
    <trip id="48" type="passenger" depart="61.17" from="DB" to="BC"/>
    <trip id="49" type="passenger" depart="62.44" from="DB" to="BD"/>
    <trip id="50" type="passenger" depart="63.72" from="AB" to="BD"/>
    <trip id="51" type="passenger" depart="64.99" from="CB" to="BC"/>
    <trip id="52" type="passenger" depart="66.27" from="AB" to="BD"/>
    <trip id="53" type="passenger" depart="67.54" from="AB" to="BC"/>
    <trip id="54" type="passenger" depart="68.82" from="CB" to="CB"/>
    <trip id="55" type="passenger" depart="70.09" from="DB" to="BA"/>
    <trip id="56" type="passenger" depart="71.36" from="CB" to="BA"/>
    <trip id="57" type="passenger" depart="72.64" from="DB" to="BD"/>
    <trip id="58" type="passenger" depart="73.91" from="AB" to="BD"/>
    <trip id="59" type="passenger" depart="75.19" from="CB" to="BA"/>
    <trip id="60" type="passenger" depart="76.46" from="DB" to="BC"/>
    <trip id="61" type="passenger" depart="77.74" from="DB" to="BC"/>
    <trip id="62" type="passenger" depart="79.01" from="AB" to="BA"/>
    <trip id="63" type="passenger" depart="80.29" from="AB" to="BD"/>
    <trip id="64" type="passenger" depart="81.56" from="DB" to="BD"/>
    <trip id="65" type="passenger" depart="82.83" from="BA" to="BA"/>
    <trip id="66" type="passenger" depart="84.11" from="DB" to="CB"/>
    <trip id="67" type="passenger" depart="85.38" from="AB" to="BC"/>
    <trip id="68" type="passenger" depart="86.66" from="AB" to="BD"/>
    <trip id="69" type="passenger" depart="87.93" from="DB" to="BA"/>
    <trip id="70" type="passenger" depart="89.21" from="CB" to="BC"/>
    <trip id="71" type="passenger" depart="90.48" from="AB" to="BD"/>
    <trip id="72" type="passenger" depart="91.75" from="CB" to="BA"/>
    <trip id="73" type="passenger" depart="93.03" from="CB" to="BD"/>
    <trip id="74" type="passenger" depart="94.30" from="AB" to="BA"/>
    <trip id="75" type="passenger" depart="95.58" from="DB" to="BD"/>
    <trip id="76" type="passenger" depart="96.85" from="CB" to="BC"/>
    <trip id="77" type="passenger" depart="98.13" from="AB" to="BA"/>
    <trip id="78" type="passenger" depart="99.40" from="BC" to="BC"/>
    <trip id="79" type="passenger" depart="100.68" from="AB" to="BA"/>
    <trip id="80" type="passenger" depart="101.95" from="AB" to="BC"/>
    <trip id="81" type="passenger" depart="103.22" from="AB" to="BD"/>
    <trip id="82" type="passenger" depart="104.50" from="DB" to="BA"/>
    <trip id="83" type="passenger" depart="105.77" from="AB" to="BD"/>
    <trip id="84" type="passenger" depart="107.05" from="AB" to="BA"/>
    <trip id="85" type="passenger" depart="108.32" from="DB" to="BC"/>
    <trip id="86" type="passenger" depart="109.60" from="CB" to="BD"/>
    <trip id="87" type="passenger" depart="110.87" from="DB" to="BA"/>
    <trip id="88" type="passenger" depart="112.14" from="AB" to="BC"/>
    <trip id="89" type="passenger" depart="113.42" from="CB" to="BC"/>
    <trip id="90" type="passenger" depart="114.69" from="DB" to="BD"/>
    <trip id="91" type="passenger" depart="115.97" from="DB" to="BA"/>
    <trip id="92" type="passenger" depart="117.24" from="CB" to="BC"/>
    <trip id="93" type="passenger" depart="118.52" from="DB" to="BA"/>
    <trip id="94" type="passenger" depart="119.79" from="AB" to="BC"/>
    <trip id="95" type="passenger" depart="121.06" from="CB" to="BA"/>
    <trip id="96" type="passenger" depart="122.34" from="AB" to="BD"/>
    <trip id="97" type="passenger" depart="123.61" from="CB" to="BD"/>
    <trip id="98" type="passenger" depart="124.89" from="CB" to="BA"/>
    <trip id="99" type="passenger" depart="126.16" from="DB" to="BD"/>
    <trip id="100" type="passenger" depart="127.44" from="DB" to="BD"/>
    <trip id="101" type="passenger" depart="128.71" from="DB" to="BA"/>
    <trip id="102" type="passenger" depart="129.99" from="CB" to="BA"/>
    <trip id="103" type="passenger" depart="131.26" from="CB" to="BA"/>
    <trip id="104" type="passenger" depart="132.53" from="BD" to="DB"/>
    <trip id="105" type="passenger" depart="133.81" from="AB" to="BD"/>
    <trip id="106" type="passenger" depart="135.08" from="CB" to="BC"/>
    <trip id="107" type="passenger" depart="136.36" from="DB" to="DB"/>
    <trip id="108" type="passenger" depart="137.63" from="CB" to="BD"/>
    <trip id="109" type="passenger" depart="138.91" from="AB" to="BA"/>
    <trip id="110" type="passenger" depart="140.18" from="DB" to="BC"/>
    <trip id="111" type="passenger" depart="141.45" from="CB" to="BD"/>
    <trip id="112" type="passenger" depart="142.73" from="AB" to="BC"/>
    <trip id="113" type="passenger" depart="144.00" from="CB" to="BD"/>
    <trip id="114" type="passenger" depart="145.28" from="AB" to="CB"/>
    <trip id="115" type="passenger" depart="146.55" from="AB" to="BA"/>
    <trip id="116" type="passenger" depart="147.83" from="CB" to="BD"/>
    <trip id="117" type="passenger" depart="149.10" from="AB" to="BA"/>
    <trip id="118" type="passenger" depart="150.38" from="DB" to="BA"/>
    <trip id="119" type="passenger" depart="151.65" from="CB" to="BC"/>
    <trip id="120" type="passenger" depart="152.92" from="CB" to="BC"/>
    <trip id="121" type="passenger" depart="154.20" from="CB" to="BD"/>
    <trip id="122" type="passenger" depart="155.47" from="AB" to="BD"/>
    <trip id="123" type="passenger" depart="156.75" from="AB" to="BC"/>
    <trip id="124" type="passenger" depart="158.02" from="CB" to="BA"/>
    <trip id="125" type="passenger" depart="159.30" from="BA" to="BD"/>
    <trip id="126" type="passenger" depart="160.57" from="AB" to="BC"/>
    <trip id="127" type="passenger" depart="161.84" from="DB" to="DB"/>
    <trip id="128" type="passenger" depart="163.12" from="AB" to="BA"/>
    <trip id="129" type="passenger" depart="164.39" from="AB" to="BD"/>
    <trip id="130" type="passenger" depart="165.67" from="DB" to="BD"/>
    <trip id="131" type="passenger" depart="166.94" from="BD" to="BA"/>
    <trip id="132" type="passenger" depart="168.22" from="DB" to="BD"/>
    <trip id="133" type="passenger" depart="169.49" from="CB" to="DB"/>
    <trip id="134" type="passenger" depart="170.77" from="CB" to="AB"/>
    <trip id="135" type="passenger" depart="172.04" from="DB" to="BA"/>
    <trip id="136" type="passenger" depart="173.31" from="CB" to="BD"/>
    <trip id="137" type="passenger" depart="174.59" from="AB" to="BA"/>
    <trip id="138" type="passenger" depart="175.86" from="AB" to="BC"/>
    <trip id="139" type="passenger" depart="177.14" from="AB" to="BC"/>
    <trip id="140" type="passenger" depart="178.41" from="DB" to="BA"/>
    <trip id="141" type="passenger" depart="179.69" from="CB" to="BA"/>
    <trip id="142" type="passenger" depart="180.96" from="CB" to="BD"/>
    <trip id="143" type="passenger" depart="182.23" from="DB" to="BA"/>
    <trip id="144" type="passenger" depart="183.51" from="CB" to="BA"/>
    <trip id="145" type="passenger" depart="184.78" from="AB" to="BD"/>
    <trip id="146" type="passenger" depart="186.06" from="CB" to="BA"/>
    <trip id="147" type="passenger" depart="187.33" from="DB" to="BC"/>
    <trip id="148" type="passenger" depart="188.61" from="CB" to="AB"/>
    <trip id="149" type="passenger" depart="189.88" from="AB" to="BD"/>
    <trip id="150" type="passenger" depart="191.16" from="DB" to="BC"/>
    <trip id="151" type="passenger" depart="192.43" from="DB" to="BC"/>
    <trip id="152" type="passenger" depart="193.70" from="AB" to="BA"/>
    <trip id="153" type="passenger" depart="194.98" from="BA" to="BD"/>
    <trip id="154" type="passenger" depart="196.25" from="DB" to="BD"/>
    <trip id="155" type="passenger" depart="197.53" from="DB" to="BA"/>
    <trip id="156" type="passenger" depart="198.80" from="AB" to="BA"/>
    <trip id="157" type="passenger" depart="200.08" from="DB" to="BD"/>
    <trip id="158" type="passenger" depart="201.35" from="CB" to="BC"/>
    <trip id="159" type="passenger" depart="202.62" from="AB" to="BD"/>
    <trip id="160" type="passenger" depart="203.90" from="DB" to="DB"/>
    <trip id="161" type="passenger" depart="205.17" from="DB" to="BD"/>
    <trip id="162" type="passenger" depart="206.45" from="AB" to="BD"/>
    <trip id="163" type="passenger" depart="207.72" from="BA" to="BD"/>
    <trip id="164" type="passenger" depart="209.00" from="DB" to="BD"/>
    <trip id="165" type="passenger" depart="210.27" from="DB" to="BA"/>
    <trip id="166" type="passenger" depart="211.54" from="DB" to="BA"/>
    <trip id="167" type="passenger" depart="212.82" from="DB" to="BD"/>
    <trip id="168" type="passenger" depart="214.09" from="AB" to="BD"/>
    <trip id="169" type="passenger" depart="215.37" from="CB" to="BA"/>
    <trip id="170" type="passenger" depart="216.64" from="DB" to="BA"/>
    <trip id="171" type="passenger" depart="217.92" from="AB" to="BA"/>
    <trip id="172" type="passenger" depart="219.19" from="BA" to="BD"/>
    <trip id="173" type="passenger" depart="220.47" from="DB" to="BA"/>
    <trip id="174" type="passenger" depart="221.74" from="CB" to="BC"/>
    <trip id="175" type="passenger" depart="223.01" from="DB" to="BC"/>
    <trip id="176" type="passenger" depart="224.29" from="DB" to="BA"/>
    <trip id="177" type="passenger" depart="225.56" from="DB" to="BA"/>
    <trip id="178" type="passenger" depart="226.84" from="DB" to="BA"/>
    <trip id="179" type="passenger" depart="228.11" from="AB" to="BC"/>
    <trip id="180" type="passenger" depart="229.39" from="DB" to="BA"/>
    <trip id="181" type="passenger" depart="230.66" from="CB" to="BC"/>
    <trip id="182" type="passenger" depart="231.93" from="BD" to="BC"/>
    <trip id="183" type="passenger" depart="233.21" from="AB" to="BD"/>
    <trip id="184" type="passenger" depart="234.48" from="AB" to="BD"/>
    <trip id="185" type="passenger" depart="235.76" from="CB" to="BD"/>
    <trip id="186" type="passenger" depart="237.03" from="DB" to="BD"/>
    <trip id="187" type="passenger" depart="238.31" from="BD" to="BA"/>
    <trip id="188" type="passenger" depart="239.58" from="CB" to="BA"/>
    <trip id="189" type="passenger" depart="240.86" from="BA" to="BD"/>
    <trip id="190" type="passenger" depart="242.13" from="DB" to="BA"/>
    <trip id="191" type="passenger" depart="243.40" from="BA" to="BC"/>
    <trip id="192" type="passenger" depart="244.68" from="CB" to="BA"/>
    <trip id="193" type="passenger" depart="245.95" from="AB" to="BC"/>
    <trip id="194" type="passenger" depart="247.23" from="DB" to="BD"/>
    <trip id="195" type="passenger" depart="248.50" from="DB" to="BC"/>
    <trip id="196" type="passenger" depart="249.78" from="AB" to="BC"/>
    <trip id="197" type="passenger" depart="251.05" from="AB" to="BA"/>
    <trip id="198" type="passenger" depart="252.32" from="CB" to="BC"/>
    <trip id="199" type="passenger" depart="253.60" from="CB" to="BC"/>
    <trip id="200" type="passenger" depart="254.87" from="CB" to="BA"/>
    <trip id="201" type="passenger" depart="256.15" from="CB" to="BD"/>
    <trip id="202" type="passenger" depart="257.42" from="DB" to="BA"/>
    <trip id="203" type="passenger" depart="258.70" from="AB" to="BC"/>
    <trip id="204" type="passenger" depart="259.97" from="CB" to="BC"/>
    <trip id="205" type="passenger" depart="261.25" from="DB" to="BD"/>
    <trip id="206" type="passenger" depart="262.52" from="CB" to="BA"/>
    <trip id="207" type="passenger" depart="263.79" from="AB" to="AB"/>
    <trip id="208" type="passenger" depart="265.07" from="AB" to="BC"/>
    <trip id="209" type="passenger" depart="266.34" from="DB" to="BA"/>
    <trip id="210" type="passenger" depart="267.62" from="CB" to="BC"/>
    <trip id="211" type="passenger" depart="268.89" from="AB" to="BD"/>
    <trip id="212" type="passenger" depart="270.17" from="CB" to="BA"/>
    <trip id="213" type="passenger" depart="271.44" from="CB" to="AB"/>
    <trip id="214" type="passenger" depart="272.71" from="DB" to="BD"/>
    <trip id="215" type="passenger" depart="273.99" from="AB" to="BC"/>
    <trip id="216" type="passenger" depart="275.26" from="AB" to="CB"/>
    <trip id="217" type="passenger" depart="276.54" from="CB" to="BA"/>
    <trip id="218" type="passenger" depart="277.81" from="AB" to="BD"/>
    <trip id="219" type="passenger" depart="279.09" from="CB" to="BD"/>
    <trip id="220" type="passenger" depart="280.36" from="CB" to="DB"/>
    <trip id="221" type="passenger" depart="281.64" from="CB" to="CB"/>
    <trip id="222" type="passenger" depart="282.91" from="DB" to="BC"/>
    <trip id="223" type="passenger" depart="284.18" from="DB" to="BC"/>
    <trip id="224" type="passenger" depart="285.46" from="DB" to="BC"/>
    <trip id="225" type="passenger" depart="286.73" from="DB" to="BD"/>
    <trip id="226" type="passenger" depart="288.01" from="CB" to="BA"/>
    <trip id="227" type="passenger" depart="289.28" from="AB" to="BD"/>
    <trip id="228" type="passenger" depart="290.56" from="DB" to="BC"/>
    <trip id="229" type="passenger" depart="291.83" from="CB" to="BA"/>
    <trip id="230" type="passenger" depart="293.10" from="AB" to="BA"/>
    <trip id="231" type="passenger" depart="294.38" from="AB" to="BA"/>
    <trip id="232" type="passenger" depart="295.65" from="CB" to="BA"/>
    <trip id="233" type="passenger" depart="296.93" from="AB" to="BD"/>
    <trip id="234" type="passenger" depart="298.20" from="DB" to="BA"/>
    <trip id="235" type="passenger" depart="299.48" from="CB" to="BC"/>
    <trip id="236" type="passenger" depart="300.75" from="CB" to="BA"/>
    <trip id="237" type="passenger" depart="302.03" from="CB" to="BD"/>
    <trip id="238" type="passenger" depart="303.30" from="CB" to="BD"/>
    <trip id="239" type="passenger" depart="304.57" from="DB" to="BD"/>
    <trip id="240" type="passenger" depart="305.85" from="BD" to="AB"/>
    <trip id="241" type="passenger" depart="307.12" from="BC" to="BD"/>
    <trip id="242" type="passenger" depart="308.40" from="DB" to="CB"/>
    <trip id="243" type="passenger" depart="309.67" from="CB" to="BD"/>
    <trip id="244" type="passenger" depart="310.95" from="CB" to="BC"/>
    <trip id="245" type="passenger" depart="312.22" from="AB" to="BA"/>
    <trip id="246" type="passenger" depart="313.49" from="CB" to="AB"/>
    <trip id="247" type="passenger" depart="314.77" from="BC" to="BD"/>
    <trip id="248" type="passenger" depart="316.04" from="CB" to="BA"/>
    <trip id="249" type="passenger" depart="317.32" from="CB" to="BA"/>
    <trip id="250" type="passenger" depart="318.59" from="CB" to="AB"/>
    <trip id="251" type="passenger" depart="319.87" from="CB" to="BC"/>
    <trip id="252" type="passenger" depart="321.14" from="AB" to="BD"/>
    <trip id="253" type="passenger" depart="322.41" from="AB" to="BC"/>
    <trip id="254" type="passenger" depart="323.69" from="AB" to="BC"/>
    <trip id="255" type="passenger" depart="324.96" from="AB" to="BA"/>
    <trip id="256" type="passenger" depart="326.24" from="DB" to="BC"/>
    <trip id="257" type="passenger" depart="327.51" from="DB" to="BD"/>
    <trip id="258" type="passenger" depart="328.79" from="AB" to="BA"/>
    <trip id="259" type="passenger" depart="330.06" from="AB" to="BC"/>
    <trip id="260" type="passenger" depart="331.34" from="DB" to="BC"/>
    <trip id="261" type="passenger" depart="332.61" from="CB" to="BD"/>
    <trip id="262" type="passenger" depart="333.88" from="CB" to="BD"/>
    <trip id="263" type="passenger" depart="335.16" from="DB" to="BA"/>
    <trip id="264" type="passenger" depart="336.43" from="AB" to="BA"/>
    <trip id="265" type="passenger" depart="337.71" from="AB" to="BD"/>
    <trip id="266" type="passenger" depart="338.98" from="CB" to="BA"/>
    <trip id="267" type="passenger" depart="340.26" from="DB" to="BD"/>
    <trip id="268" type="passenger" depart="341.53" from="AB" to="BC"/>
    <trip id="269" type="passenger" depart="342.80" from="DB" to="BA"/>
    <trip id="270" type="passenger" depart="344.08" from="DB" to="CB"/>
    <trip id="271" type="passenger" depart="345.35" from="AB" to="AB"/>
    <trip id="272" type="passenger" depart="346.63" from="BA" to="BD"/>
    <trip id="273" type="passenger" depart="347.90" from="DB" to="BC"/>
    <trip id="274" type="passenger" depart="349.18" from="DB" to="BA"/>
    <trip id="275" type="passenger" depart="350.45" from="CB" to="BC"/>
    <trip id="276" type="passenger" depart="351.73" from="AB" to="BD"/>
    <trip id="277" type="passenger" depart="353.00" from="DB" to="BC"/>
    <trip id="278" type="passenger" depart="354.27" from="AB" to="DB"/>
    <trip id="279" type="passenger" depart="355.55" from="DB" to="BC"/>
    <trip id="280" type="passenger" depart="356.82" from="CB" to="BC"/>
    <trip id="281" type="passenger" depart="358.10" from="CB" to="BC"/>
    <trip id="282" type="passenger" depart="359.37" from="DB" to="BD"/>
    <trip id="283" type="passenger" depart="360.65" from="AB" to="CB"/>
    <trip id="284" type="passenger" depart="361.92" from="CB" to="BD"/>
    <trip id="285" type="passenger" depart="363.19" from="DB" to="BC"/>
    <trip id="286" type="passenger" depart="364.47" from="DB" to="CB"/>
    <trip id="287" type="passenger" depart="365.74" from="AB" to="BD"/>
    <trip id="288" type="passenger" depart="367.02" from="CB" to="BC"/>
    <trip id="289" type="passenger" depart="368.29" from="CB" to="BD"/>
    <trip id="290" type="passenger" depart="369.57" from="AB" to="BD"/>
    <trip id="291" type="passenger" depart="370.84" from="DB" to="BA"/>
    <trip id="292" type="passenger" depart="372.12" from="DB" to="BA"/>
    <trip id="293" type="passenger" depart="373.39" from="CB" to="BC"/>
    <trip id="294" type="passenger" depart="374.66" from="BD" to="AB"/>
    <trip id="295" type="passenger" depart="375.94" from="DB" to="BA"/>
    <trip id="296" type="passenger" depart="377.21" from="AB" to="BD"/>
    <trip id="297" type="passenger" depart="378.49" from="BC" to="BD"/>
    <trip id="298" type="passenger" depart="379.76" from="DB" to="BA"/>
    <trip id="299" type="passenger" depart="381.04" from="AB" to="CB"/>
    <trip id="300" type="passenger" depart="382.31" from="AB" to="BD"/>
    <trip id="301" type="passenger" depart="383.58" from="CB" to="BD"/>
    <trip id="302" type="passenger" depart="384.86" from="CB" to="BD"/>
    <trip id="303" type="passenger" depart="386.13" from="CB" to="BD"/>
    <trip id="304" type="passenger" depart="387.41" from="AB" to="BA"/>
    <trip id="305" type="passenger" depart="388.68" from="CB" to="BA"/>
    <trip id="306" type="passenger" depart="389.96" from="CB" to="BC"/>
    <trip id="307" type="passenger" depart="391.23" from="CB" to="BC"/>
    <trip id="308" type="passenger" depart="392.51" from="DB" to="BA"/>
    <trip id="309" type="passenger" depart="393.78" from="DB" to="BA"/>
    <trip id="310" type="passenger" depart="395.05" from="AB" to="BA"/>
    <trip id="311" type="passenger" depart="396.33" from="AB" to="BA"/>
    <trip id="312" type="passenger" depart="397.60" from="CB" to="BD"/>
    <trip id="313" type="passenger" depart="398.88" from="AB" to="BA"/>
    <trip id="314" type="passenger" depart="400.15" from="CB" to="BD"/>
    <trip id="315" type="passenger" depart="401.43" from="DB" to="BC"/>
    <trip id="316" type="passenger" depart="402.70" from="AB" to="BA"/>
    <trip id="317" type="passenger" depart="403.97" from="AB" to="BA"/>
    <trip id="318" type="passenger" depart="405.25" from="AB" to="AB"/>
    <trip id="319" type="passenger" depart="406.52" from="CB" to="BA"/>
    <trip id="320" type="passenger" depart="407.80" from="DB" to="BC"/>
    <trip id="321" type="passenger" depart="409.07" from="DB" to="BA"/>
    <trip id="322" type="passenger" depart="410.35" from="DB" to="BC"/>
    <trip id="323" type="passenger" depart="411.62" from="DB" to="BC"/>
    <trip id="324" type="passenger" depart="412.89" from="CB" to="BC"/>
    <trip id="325" type="passenger" depart="414.17" from="AB" to="BA"/>
    <trip id="326" type="passenger" depart="415.44" from="DB" to="BC"/>
    <trip id="327" type="passenger" depart="416.72" from="DB" to="BC"/>
    <trip id="328" type="passenger" depart="417.99" from="AB" to="BC"/>
    <trip id="329" type="passenger" depart="419.27" from="AB" to="BA"/>
    <trip id="330" type="passenger" depart="420.54" from="CB" to="BA"/>
    <trip id="331" type="passenger" depart="421.82" from="DB" to="BA"/>
    <trip id="332" type="passenger" depart="423.09" from="DB" to="BC"/>
    <trip id="333" type="passenger" depart="424.36" from="DB" to="BA"/>
    <trip id="334" type="passenger" depart="425.64" from="CB" to="BC"/>
    <trip id="335" type="passenger" depart="426.91" from="CB" to="BD"/>
    <trip id="336" type="passenger" depart="428.19" from="DB" to="BA"/>
    <trip id="337" type="passenger" depart="429.46" from="CB" to="BC"/>
    <trip id="338" type="passenger" depart="430.74" from="DB" to="CB"/>
    <trip id="339" type="passenger" depart="432.01" from="AB" to="BA"/>
    <trip id="340" type="passenger" depart="433.28" from="CB" to="BA"/>
    <trip id="341" type="passenger" depart="434.56" from="AB" to="BA"/>
    <trip id="342" type="passenger" depart="435.83" from="AB" to="BC"/>
    <trip id="343" type="passenger" depart="437.11" from="CB" to="BA"/>
    <trip id="344" type="passenger" depart="438.38" from="AB" to="BD"/>
    <trip id="345" type="passenger" depart="439.66" from="DB" to="BC"/>
    <trip id="346" type="passenger" depart="440.93" from="CB" to="BD"/>
    <trip id="347" type="passenger" depart="442.21" from="DB" to="BC"/>
    <trip id="348" type="passenger" depart="443.48" from="CB" to="BD"/>
    <trip id="349" type="passenger" depart="444.75" from="CB" to="BC"/>
    <trip id="350" type="passenger" depart="446.03" from="CB" to="BD"/>
    <trip id="351" type="passenger" depart="447.30" from="DB" to="BA"/>
    <trip id="352" type="passenger" depart="448.58" from="AB" to="BA"/>
    <trip id="353" type="passenger" depart="449.85" from="DB" to="BC"/>
    <trip id="354" type="passenger" depart="451.13" from="AB" to="BA"/>
    <trip id="355" type="passenger" depart="452.40" from="CB" to="BD"/>
    <trip id="356" type="passenger" depart="453.67" from="DB" to="BC"/>
    <trip id="357" type="passenger" depart="454.95" from="CB" to="BA"/>
    <trip id="358" type="passenger" depart="456.22" from="AB" to="BC"/>
    <trip id="359" type="passenger" depart="457.50" from="BA" to="BA"/>
    <trip id="360" type="passenger" depart="458.77" from="AB" to="CB"/>
    <trip id="361" type="passenger" depart="460.05" from="DB" to="BC"/>
    <trip id="362" type="passenger" depart="461.32" from="DB" to="DB"/>
    <trip id="363" type="passenger" depart="462.60" from="CB" to="BA"/>
    <trip id="364" type="passenger" depart="463.87" from="AB" to="BD"/>
    <trip id="365" type="passenger" depart="465.14" from="CB" to="BD"/>
    <trip id="366" type="passenger" depart="466.42" from="DB" to="BA"/>
    <trip id="367" type="passenger" depart="467.69" from="CB" to="BC"/>
    <trip id="368" type="passenger" depart="468.97" from="CB" to="BA"/>
    <trip id="369" type="passenger" depart="470.24" from="BC" to="BA"/>
    <trip id="370" type="passenger" depart="471.52" from="CB" to="BD"/>
    <trip id="371" type="passenger" depart="472.79" from="BA" to="BD"/>
    <trip id="372" type="passenger" depart="474.06" from="AB" to="CB"/>
    <trip id="373" type="passenger" depart="475.34" from="DB" to="BC"/>
    <trip id="374" type="passenger" depart="476.61" from="CB" to="BA"/>
    <trip id="375" type="passenger" depart="477.89" from="BA" to="DB"/>
    <trip id="376" type="passenger" depart="479.16" from="CB" to="BC"/>
    <trip id="377" type="passenger" depart="480.44" from="DB" to="BD"/>
    <trip id="378" type="passenger" depart="481.71" from="CB" to="BC"/>
    <trip id="379" type="passenger" depart="482.99" from="AB" to="BC"/>
    <trip id="380" type="passenger" depart="484.26" from="DB" to="BC"/>
    <trip id="381" type="passenger" depart="485.53" from="DB" to="BA"/>
    <trip id="382" type="passenger" depart="486.81" from="CB" to="BD"/>
    <trip id="383" type="passenger" depart="488.08" from="CB" to="BD"/>
    <trip id="384" type="passenger" depart="489.36" from="AB" to="DB"/>
    <trip id="385" type="passenger" depart="490.63" from="CB" to="BA"/>
    <trip id="386" type="passenger" depart="491.91" from="AB" to="BC"/>
    <trip id="387" type="passenger" depart="493.18" from="CB" to="BA"/>
    <trip id="388" type="passenger" depart="494.45" from="DB" to="BD"/>
    <trip id="389" type="passenger" depart="495.73" from="CB" to="BA"/>
    <trip id="390" type="passenger" depart="497.00" from="DB" to="BC"/>
    <trip id="391" type="passenger" depart="498.28" from="DB" to="BC"/>
    <trip id="392" type="passenger" depart="499.55" from="AB" to="BD"/>
    <trip id="393" type="passenger" depart="500.83" from="DB" to="BA"/>
    <trip id="394" type="passenger" depart="502.10" from="CB" to="BC"/>
    <trip id="395" type="passenger" depart="503.38" from="DB" to="BC"/>
    <trip id="396" type="passenger" depart="504.65" from="DB" to="BD"/>
    <trip id="397" type="passenger" depart="505.92" from="AB" to="BD"/>