<?xml version="1.0" encoding="UTF-8"?>

<!-- generated on 2025-03-30 11:38:48.968140 by randomTrips.py v1_22_0+0002-63e50f52594
<configuration>
    <net-file value="traffic_dataset\scenario_6\network.net.xml"/>
    <output-trip-file value="traffic_dataset\scenario_6\routes.rou.xml"/>
    <vehicle-class value="passenger"/>
    <fringe-factor value="10"/>
    <allow-fringe value="True"/>
    <validate value="True"/>
    <period value="2.806741144818211"/>
</configuration>
-->

<!-- generated on 2025-03-30 11:38:48 by Eclipse SUMO duarouter Version 1.22.0
<duarouterConfiguration xmlns:xsi="http://www.w3.org/2001/XMLSchema-instance" xsi:noNamespaceSchemaLocation="http://sumo.dlr.de/xsd/duarouterConfiguration.xsd">

    <input>
        <net-file value="traffic_dataset\scenario_6\network.net.xml"/>
        <route-files value="traffic_dataset\scenario_6\routes.rou.xml"/>
    </input>

    <output>
        <output-file value="traffic_dataset\scenario_6\routes.rou.xml.tmp"/>
        <alternatives-output value="NUL"/>
        <write-trips value="true"/>
    </output>

    <time>
        <begin value="0"/>
        <end value="3600.0"/>
    </time>

    <report>
        <no-warnings value="true"/>
        <ignore-errors value="true"/>
        <no-step-log value="true"/>
    </report>

</duarouterConfiguration>
-->

<routes xmlns:xsi="http://www.w3.org/2001/XMLSchema-instance" xsi:noNamespaceSchemaLocation="http://sumo.dlr.de/xsd/routes_file.xsd">
    <vType id="passenger" vClass="passenger"/>
    <trip id="0" type="passenger" depart="0.00" from="DB" to="BA"/>
    <trip id="1" type="passenger" depart="2.81" from="BD" to="BA"/>
    <trip id="2" type="passenger" depart="5.61" from="DB" to="BD"/>
    <trip id="3" type="passenger" depart="8.42" from="EB" to="BA"/>
    <trip id="4" type="passenger" depart="11.23" from="CB" to="BA"/>
    <trip id="5" type="passenger" depart="14.03" from="AB" to="BD"/>
    <trip id="6" type="passenger" depart="16.84" from="AB" to="BA"/>
    <trip id="7" type="passenger" depart="19.65" from="DB" to="BD"/>
    <trip id="8" type="passenger" depart="22.45" from="AB" to="BD"/>
    <trip id="9" type="passenger" depart="25.26" from="EB" to="AB"/>
    <trip id="10" type="passenger" depart="28.07" from="EB" to="BD"/>
    <trip id="11" type="passenger" depart="30.87" from="CB" to="BA"/>
    <trip id="12" type="passenger" depart="33.68" from="EB" to="BC"/>
    <trip id="13" type="passenger" depart="36.49" from="AB" to="BA"/>
    <trip id="14" type="passenger" depart="39.29" from="EB" to="BD"/>
    <trip id="15" type="passenger" depart="42.10" from="EB" to="BE"/>
    <trip id="16" type="passenger" depart="44.91" from="CB" to="DB"/>
    <trip id="17" type="passenger" depart="47.71" from="CB" to="BD"/>
    <trip id="18" type="passenger" depart="50.52" from="EB" to="BD"/>
    <trip id="19" type="passenger" depart="53.33" from="EB" to="BD"/>
    <trip id="20" type="passenger" depart="56.13" from="DB" to="BA"/>
    <trip id="21" type="passenger" depart="58.94" from="BA" to="BC"/>
    <trip id="22" type="passenger" depart="61.75" from="AB" to="BA"/>
    <trip id="23" type="passenger" depart="64.56" from="AB" to="BC"/>
    <trip id="24" type="passenger" depart="67.36" from="DB" to="BC"/>
    <trip id="25" type="passenger" depart="70.17" from="CB" to="BA"/>
    <trip id="26" type="passenger" depart="72.98" from="BC" to="CB"/>
    <trip id="27" type="passenger" depart="75.78" from="DB" to="BD"/>
    <trip id="28" type="passenger" depart="78.59" from="AB" to="BE"/>
    <trip id="29" type="passenger" depart="81.40" from="AB" to="BC"/>
    <trip id="30" type="passenger" depart="84.20" from="EB" to="BD"/>
    <trip id="31" type="passenger" depart="87.01" from="DB" to="BD"/>
    <trip id="32" type="passenger" depart="89.82" from="EB" to="BE"/>
    <trip id="33" type="passenger" depart="92.62" from="BA" to="BA"/>
    <trip id="34" type="passenger" depart="95.43" from="BE" to="BC"/>
    <trip id="35" type="passenger" depart="98.24" from="AB" to="CB"/>
    <trip id="36" type="passenger" depart="101.04" from="EB" to="BC"/>
    <trip id="37" type="passenger" depart="103.85" from="DB" to="BC"/>
    <trip id="38" type="passenger" depart="106.66" from="EB" to="BC"/>
    <trip id="39" type="passenger" depart="109.46" from="BC" to="BA"/>
    <trip id="40" type="passenger" depart="112.27" from="DB" to="BC"/>
    <trip id="41" type="passenger" depart="115.08" from="DB" to="BE"/>
    <trip id="42" type="passenger" depart="117.88" from="CB" to="BA"/>
    <trip id="43" type="passenger" depart="120.69" from="EB" to="BD"/>
    <trip id="44" type="passenger" depart="123.50" from="AB" to="BA"/>
    <trip id="45" type="passenger" depart="126.30" from="AB" to="BD"/>
    <trip id="46" type="passenger" depart="129.11" from="EB" to="BC"/>
    <trip id="47" type="passenger" depart="131.92" from="AB" to="BC"/>
    <trip id="48" type="passenger" depart="134.72" from="EB" to="BD"/>
    <trip id="49" type="passenger" depart="137.53" from="EB" to="BE"/>
    <trip id="50" type="passenger" depart="140.34" from="AB" to="BE"/>
    <trip id="51" type="passenger" depart="143.14" from="DB" to="BD"/>
    <trip id="52" type="passenger" depart="145.95" from="BC" to="BD"/>
    <trip id="53" type="passenger" depart="148.76" from="AB" to="BC"/>
    <trip id="54" type="passenger" depart="151.56" from="CB" to="CB"/>
    <trip id="55" type="passenger" depart="154.37" from="EB" to="BC"/>
    <trip id="56" type="passenger" depart="157.18" from="CB" to="BA"/>
    <trip id="57" type="passenger" depart="159.98" from="EB" to="BE"/>
    <trip id="58" type="passenger" depart="162.79" from="BE" to="BD"/>
    <trip id="59" type="passenger" depart="165.60" from="DB" to="BA"/>
    <trip id="60" type="passenger" depart="168.40" from="DB" to="BD"/>
    <trip id="61" type="passenger" depart="171.21" from="EB" to="BD"/>
    <trip id="62" type="passenger" depart="174.02" from="AB" to="BC"/>
    <trip id="63" type="passenger" depart="176.82" from="AB" to="BE"/>
    <trip id="64" type="passenger" depart="179.63" from="EB" to="BE"/>
    <trip id="65" type="passenger" depart="182.44" from="BE" to="BA"/>
    <trip id="66" type="passenger" depart="185.24" from="EB" to="CB"/>
    <trip id="67" type="passenger" depart="188.05" from="AB" to="BD"/>
    <trip id="68" type="passenger" depart="190.86" from="AB" to="BE"/>
    <trip id="69" type="passenger" depart="193.67" from="DB" to="BA"/>
    <trip id="70" type="passenger" depart="196.47" from="CB" to="BD"/>
    <trip id="71" type="passenger" depart="199.28" from="BC" to="BE"/>
    <trip id="72" type="passenger" depart="202.09" from="CB" to="BA"/>
    <trip id="73" type="passenger" depart="204.89" from="CB" to="BE"/>
    <trip id="74" type="passenger" depart="207.70" from="AB" to="BC"/>
    <trip id="75" type="passenger" depart="210.51" from="EB" to="BD"/>
    <trip id="76" type="passenger" depart="213.31" from="CB" to="BD"/>
    <trip id="77" type="passenger" depart="216.12" from="AB" to="BA"/>
    <trip id="78" type="passenger" depart="218.93" from="CB" to="BD"/>
    <trip id="79" type="passenger" depart="221.73" from="BA" to="BA"/>
    <trip id="80" type="passenger" depart="224.54" from="AB" to="BD"/>
    <trip id="81" type="passenger" depart="227.35" from="BA" to="BE"/>
    <trip id="82" type="passenger" depart="230.15" from="EB" to="BA"/>
    <trip id="83" type="passenger" depart="232.96" from="BA" to="BD"/>
    <trip id="84" type="passenger" depart="235.77" from="AB" to="BA"/>
    <trip id="85" type="passenger" depart="238.57" from="EB" to="BD"/>
    <trip id="86" type="passenger" depart="241.38" from="CB" to="BE"/>
    <trip id="87" type="passenger" depart="244.19" from="EB" to="BA"/>
    <trip id="88" type="passenger" depart="246.99" from="AB" to="BC"/>
    <trip id="89" type="passenger" depart="249.80" from="CB" to="BC"/>
    <trip id="90" type="passenger" depart="252.61" from="DB" to="BD"/>
    <trip id="91" type="passenger" depart="255.41" from="EB" to="BA"/>
    <trip id="92" type="passenger" depart="258.22" from="CB" to="BC"/>
    <trip id="93" type="passenger" depart="261.03" from="EB" to="BA"/>
    <trip id="94" type="passenger" depart="263.83" from="AB" to="BC"/>
    <trip id="95" type="passenger" depart="266.64" from="CB" to="BC"/>
    <trip id="96" type="passenger" depart="269.45" from="BA" to="BE"/>
    <trip id="97" type="passenger" depart="272.25" from="CB" to="BE"/>
    <trip id="98" type="passenger" depart="275.06" from="DB" to="BA"/>
    <trip id="99" type="passenger" depart="277.87" from="EB" to="BE"/>
    <trip id="100" type="passenger" depart="280.67" from="EB" to="BE"/>
    <trip id="101" type="passenger" depart="283.48" from="EB" to="BA"/>
    <trip id="102" type="passenger" depart="286.29" from="CB" to="BA"/>
    <trip id="103" type="passenger" depart="289.09" from="CB" to="BA"/>
    <trip id="104" type="passenger" depart="291.90" from="CB" to="EB"/>
    <trip id="105" type="passenger" depart="294.71" from="BC" to="BE"/>
    <trip id="106" type="passenger" depart="297.51" from="CB" to="BC"/>
    <trip id="107" type="passenger" depart="300.32" from="EB" to="EB"/>
    <trip id="108" type="passenger" depart="303.13" from="DB" to="BE"/>
    <trip id="109" type="passenger" depart="305.93" from="AB" to="BC"/>
    <trip id="110" type="passenger" depart="308.74" from="EB" to="BD"/>
    <trip id="111" type="passenger" depart="311.55" from="CB" to="BE"/>
    <trip id="112" type="passenger" depart="314.36" from="AB" to="BD"/>
    <trip id="113" type="passenger" depart="317.16" from="CB" to="BE"/>
    <trip id="114" type="passenger" depart="319.97" from="AB" to="DB"/>
    <trip id="115" type="passenger" depart="322.78" from="AB" to="BA"/>
    <trip id="116" type="passenger" depart="325.58" from="DB" to="BD"/>
    <trip id="117" type="passenger" depart="328.39" from="BA" to="BA"/>
    <trip id="118" type="passenger" depart="331.20" from="EB" to="BA"/>
    <trip id="119" type="passenger" depart="334.00" from="DB" to="BD"/>
    <trip id="120" type="passenger" depart="336.81" from="CB" to="BD"/>
    <trip id="121" type="passenger" depart="339.62" from="CB" to="CB"/>
    <trip id="122" type="passenger" depart="342.42" from="AB" to="BE"/>
    <trip id="123" type="passenger" depart="345.23" from="BA" to="BC"/>
    <trip id="124" type="passenger" depart="348.04" from="DB" to="BC"/>
    <trip id="125" type="passenger" depart="350.84" from="BE" to="BE"/>
    <trip id="126" type="passenger" depart="353.65" from="AB" to="BC"/>
    <trip id="127" type="passenger" depart="356.46" from="EB" to="EB"/>
    <trip id="128" type="passenger" depart="359.26" from="AB" to="BA"/>
    <trip id="129" type="passenger" depart="362.07" from="BC" to="CB"/>
    <trip id="130" type="passenger" depart="364.88" from="EB" to="BE"/>
    <trip id="131" type="passenger" depart="367.68" from="CB" to="BA"/>
    <trip id="132" type="passenger" depart="370.49" from="EB" to="BD"/>
    <trip id="133" type="passenger" depart="373.30" from="DB" to="EB"/>
    <trip id="134" type="passenger" depart="376.10" from="DB" to="AB"/>
    <trip id="135" type="passenger" depart="378.91" from="EB" to="BC"/>
    <trip id="136" type="passenger" depart="381.72" from="DB" to="CB"/>
    <trip id="137" type="passenger" depart="384.52" from="AB" to="BA"/>
    <trip id="138" type="passenger" depart="387.33" from="AB" to="BD"/>
    <trip id="139" type="passenger" depart="390.14" from="BC" to="BD"/>
    <trip id="140" type="passenger" depart="392.94" from="DB" to="BA"/>
    <trip id="141" type="passenger" depart="395.75" from="DB" to="BC"/>
    <trip id="142" type="passenger" depart="398.56" from="CB" to="BE"/>
    <trip id="143" type="passenger" depart="401.36" from="EB" to="BA"/>
    <trip id="144" type="passenger" depart="404.17" from="CB" to="BC"/>
    <trip id="145" type="passenger" depart="406.98" from="AB" to="BE"/>
    <trip id="146" type="passenger" depart="409.78" from="DB" to="BC"/>
    <trip id="147" type="passenger" depart="412.59" from="DB" to="BD"/>
    <trip id="148" type="passenger" depart="415.40" from="CB" to="AB"/>
    <trip id="149" type="passenger" depart="418.20" from="AB" to="BE"/>
    <trip id="150" type="passenger" depart="421.01" from="EB" to="BD"/>
    <trip id="151" type="passenger" depart="423.82" from="EB" to="BD"/>
    <trip id="152" type="passenger" depart="426.62" from="AB" to="BA"/>
    <trip id="153" type="passenger" depart="429.43" from="BE" to="BE"/>
    <trip id="154" type="passenger" depart="432.24" from="EB" to="BE"/>
    <trip id="155" type="passenger" depart="435.04" from="EB" to="BA"/>
    <trip id="156" type="passenger" depart="437.85" from="BA" to="BA"/>
    <trip id="157" type="passenger" depart="440.66" from="EB" to="BE"/>
    <trip id="158" type="passenger" depart="443.47" from="CB" to="BD"/>
    <trip id="159" type="passenger" depart="446.27" from="AB" to="BE"/>
    <trip id="160" type="passenger" depart="449.08" from="EB" to="DB"/>
    <trip id="161" type="passenger" depart="451.89" from="EB" to="BE"/>
    <trip id="162" type="passenger" depart="454.69" from="AB" to="BE"/>
    <trip id="163" type="passenger" depart="457.50" from="CB" to="BE"/>
    <trip id="164" type="passenger" depart="460.31" from="EB" to="BE"/>
    <trip id="165" type="passenger" depart="463.11" from="EB" to="BC"/>
    <trip id="166" type="passenger" depart="465.92" from="EB" to="BA"/>
    <trip id="167" type="passenger" depart="468.73" from="EB" to="BE"/>
    <trip id="168" type="passenger" depart="471.53" from="AB" to="BE"/>
    <trip id="169" type="passenger" depart="474.34" from="CB" to="BC"/>
    <trip id="170" type="passenger" depart="477.15" from="EB" to="BA"/>
    <trip id="171" type="passenger" depart="479.95" from="AB" to="BA"/>
    <trip id="172" type="passenger" depart="482.76" from="CB" to="BE"/>
    <trip id="173" type="passenger" depart="485.57" from="EB" to="BC"/>
    <trip id="174" type="passenger" depart="488.37" from="DB" to="BC"/>
    <trip id="175" type="passenger" depart="491.18" from="EB" to="BD"/>
    <trip id="176" type="passenger" depart="493.99" from="EB" to="BA"/>
    <trip id="177" type="passenger" depart="496.79" from="EB" to="BA"/>
    <trip id="178" type="passenger" depart="499.60" from="EB" to="BC"/>
    <trip id="179" type="passenger" depart="502.41" from="AB" to="BC"/>
    <trip id="180" type="passenger" depart="505.21" from="DB" to="BC"/>
    <trip id="181" type="passenger" depart="508.02" from="DB" to="BD"/>
    <trip id="182" type="passenger" depart="510.83" from="CB" to="BD"/>
    <trip id="183" type="passenger" depart="513.63" from="BC" to="BE"/>
    <trip id="184" type="passenger" depart="516.44" from="AB" to="BE"/>
    <trip id="185" type="passenger" depart="519.25" from="CB" to="BE"/>
    <trip id="186" type="passenger" depart="522.05" from="DB" to="BD"/>
    <trip id="187" type="passenger" depart="524.86" from="CB" to="BA"/>
    <trip id="188" type="passenger" depart="527.67" from="DB" to="BC"/>
    <trip id="189" type="passenger" depart="530.47" from="BE" to="BE"/>
    <trip id="190" type="passenger" depart="533.28" from="DB" to="BC"/>
    <trip id="191" type="passenger" depart="536.09" from="BE" to="BC"/>
    <trip id="192" type="passenger" depart="538.89" from="CB" to="BC"/>
    <trip id="193" type="passenger" depart="541.70" from="AB" to="BC"/>
    <trip id="194" type="passenger" depart="544.51" from="EB" to="BD"/>
    <trip id="195" type="passenger" depart="547.31" from="EB" to="BD"/>
    <trip id="196" type="passenger" depart="550.12" from="BE" to="BD"/>
    <trip id="197" type="passenger" depart="552.93" from="AB" to="BC"/>
    <trip id="198" type="passenger" depart="555.73" from="CB" to="BD"/>
    <trip id="199" type="passenger" depart="558.54" from="DB" to="BC"/>
    <trip id="200" type="passenger" depart="561.35" from="CB" to="BA"/>
    <trip id="201" type="passenger" depart="564.15" from="CB" to="BE"/>
    <trip id="202" type="passenger" depart="566.96" from="EB" to="BA"/>
    <trip id="203" type="passenger" depart="569.77" from="AB" to="BD"/>
    <trip id="204" type="passenger" depart="572.58" from="DB" to="BC"/>
    <trip id="205" type="passenger" depart="575.38" from="EB" to="BE"/>
    <trip id="206" type="passenger" depart="578.19" from="DB" to="BA"/>
    <trip id="207" type="passenger" depart="581.00" from="AB" to="BA"/>
    <trip id="208" type="passenger" depart="583.80" from="BA" to="BC"/>
    <trip id="209" type="passenger" depart="586.61" from="EB" to="BA"/>
    <trip id="210" type="passenger" depart="589.42" from="CB" to="BD"/>
    <trip id="211" type="passenger" depart="592.22" from="AB" to="BD"/>
    <trip id="212" type="passenger" depart="595.03" from="CB" to="BA"/>
    <trip id="213" type="passenger" depart="597.84" from="DB" to="AB"/>
    <trip id="214" type="passenger" depart="600.64" from="DB" to="BE"/>
    <trip id="215" type="passenger" depart="603.45" from="AB" to="BC"/>
    <trip id="216" type="passenger" depart="606.26" from="AB" to="DB"/>
    <trip id="217" type="passenger" depart="609.06" from="CB" to="BA"/>
    <trip id="218" type="passenger" depart="611.87" from="BA" to="BE"/>
    <trip id="219" type="passenger" depart="614.68" from="CB" to="BE"/>
    <trip id="220" type="passenger" depart="617.48" from="DB" to="EB"/>
    <trip id="221" type="passenger" depart="620.29" from="DB" to="CB"/>
    <trip id="222" type="passenger" depart="623.10" from="EB" to="BD"/>
    <trip id="223" type="passenger" depart="625.90" from="DB" to="BD"/>
    <trip id="224" type="passenger" depart="628.71" from="EB" to="BD"/>
    <trip id="225" type="passenger" depart="631.52" from="EB" to="BE"/>
    <trip id="226" type="passenger" depart="634.32" from="CB" to="BC"/>
    <trip id="227" type="passenger" depart="637.13" from="BA" to="BD"/>
    <trip id="228" type="passenger" depart="639.94" from="DB" to="BD"/>
    <trip id="229" type="passenger" depart="642.74" from="DB" to="BC"/>
    <trip id="230" type="passenger" depart="645.55" from="AB" to="BC"/>
    <trip id="231" type="passenger" depart="648.36" from="BC" to="BC"/>
    <trip id="232" type="passenger" depart="651.16" from="CB" to="BA"/>
    <trip id="233" type="passenger" depart="653.97" from="BA" to="BD"/>
    <trip id="234" type="passenger" depart="656.78" from="DB" to="BA"/>
    <trip id="235" type="passenger" depart="659.58" from="CB" to="BD"/>
    <trip id="236" type="passenger" depart="662.39" from="CB" to="BA"/>
    <trip id="237" type="passenger" depart="665.20" from="CB" to="BE"/>
    <trip id="238" type="passenger" depart="668.00" from="DB" to="BD"/>
    <trip id="239" type="passenger" depart="670.81" from="EB" to="BE"/>
    <trip id="240" type="passenger" depart="673.62" from="CB" to="AB"/>
    <trip id="241" type="passenger" depart="676.42" from="CB" to="BE"/>
    <trip id="242" type="passenger" depart="679.23" from="EB" to="CB"/>
    <trip id="243" type="passenger" depart="682.04" from="CB" to="BE"/>
    <trip id="244" type="passenger" depart="684.84" from="DB" to="BD"/>
    <trip id="245" type="passenger" depart="687.65" from="AB" to="BA"/>
    <trip id="246" type="passenger" depart="690.46" from="CB" to="BA"/>
    <trip id="247" type="passenger" depart="693.27" from="CB" to="BD"/>
    <trip id="248" type="passenger" depart="696.07" from="CB" to="BA"/>
    <trip id="249" type="passenger" depart="698.88" from="CB" to="BA"/>
    <trip id="250" type="passenger" depart="701.69" from="DB" to="BA"/>
    <trip id="251" type="passenger" depart="704.49" from="CB" to="BD"/>
    <trip id="252" type="passenger" depart="707.30" from="AB" to="BD"/>
    <trip id="253" type="passenger" depart="710.11" from="AB" to="BC"/>
    <trip id="254" type="passenger" depart="712.91" from="AB" to="BC"/>
    <trip id="255" type="passenger" depart="715.72" from="AB" to="BC"/>
    <trip id="256" type="passenger" depart="718.53" from="DB" to="BC"/>
    <trip id="257" type="passenger" depart="721.33" from="DB" to="BE"/>
    <trip id="258" type="passenger" depart="724.14" from="BC" to="BA"/>
    <trip id="259" type="passenger" depart="726.95" from="AB" to="BD"/>
    <trip id="260" type="passenger" depart="729.75" from="EB" to="BC"/>
    <trip id="261" type="passenger" depart="732.56" from="DB" to="BE"/>
    <trip id="262" type="passenger" depart="735.37" from="DB" to="BE"/>
    <trip id="263" type="passenger" depart="738.17" from="EB" to="BA"/>
    <trip id="264" type="passenger" depart="740.98" from="AB" to="BA"/>
    <trip id="265" type="passenger" depart="743.79" from="AB" to="BD"/>
    <trip id="266" type="passenger" depart="746.59" from="DB" to="BA"/>
    <trip id="267" type="passenger" depart="749.40" from="DB" to="BE"/>
    <trip id="268" type="passenger" depart="752.21" from="AB" to="BD"/>
    <trip id="269" type="passenger" depart="755.01" from="DB" to="BA"/>
    <trip id="270" type="passenger" depart="757.82" from="EB" to="DB"/>
    <trip id="271" type="passenger" depart="760.63" from="AB" to="BA"/>
    <trip id="272" type="passenger" depart="763.43" from="BE" to="BD"/>
    <trip id="273" type="passenger" depart="766.24" from="EB" to="BC"/>
    <trip id="274" type="passenger" depart="769.05" from="DB" to="BA"/>
    <trip id="275" type="passenger" depart="771.85" from="DB" to="BD"/>
    <trip id="276" type="passenger" depart="774.66" from="AB" to="BE"/>
    <trip id="277" type="passenger" depart="777.47" from="EB" to="BD"/>
    <trip id="278" type="passenger" depart="780.27" from="AB" to="EB"/>
    <trip id="279" type="passenger" depart="783.08" from="EB" to="BC"/>
    <trip id="280" type="passenger" depart="785.89" from="CB" to="BC"/>
    <trip id="281" type="passenger" depart="788.69" from="CB" to="BC"/>
    <trip id="282" type="passenger" depart="791.50" from="EB" to="BE"/>
    <trip id="283" type="passenger" depart="794.31" from="AB" to="DB"/>
    <trip id="284" type="passenger" depart="797.11" from="DB" to="BE"/>
    <trip id="285" type="passenger" depart="799.92" from="DB" to="BC"/>
    <trip id="286" type="passenger" depart="802.73" from="DB" to="DB"/>
    <trip id="287" type="passenger" depart="805.53" from="BC" to="BE"/>
    <trip id="288" type="passenger" depart="808.34" from="CB" to="BD"/>
    <trip id="289" type="passenger" depart="811.15" from="CB" to="BE"/>
    <trip id="290" type="passenger" depart="813.95" from="BC" to="BE"/>
    <trip id="291" type="passenger" depart="816.76" from="EB" to="BA"/>
    <trip id="292" type="passenger" depart="819.57" from="EB" to="BA"/>
    <trip id="293" type="passenger" depart="822.38" from="CB" to="BD"/>
    <trip id="294" type="passenger" depart="825.18" from="CB" to="BA"/>
    <trip id="295" type="passenger" depart="827.99" from="EB" to="BA"/>
    <trip id="296" type="passenger" depart="830.80" from="AB" to="BE"/>
    <trip id="297" type="passenger" depart="833.60" from="CB" to="BE"/>
    <trip id="298" type="passenger" depart="836.41" from="DB" to="BC"/>
    <trip id="299" type="passenger" depart="839.22" from="AB" to="CB"/>
    <trip id="300" type="passenger" depart="842.02" from="AB" to="BE"/>
    <trip id="301" type="passenger" depart="844.83" from="CB" to="BE"/>
    <trip id="302" type="passenger" depart="847.64" from="DB" to="BD"/>
    <trip id="303" type="passenger" depart="850.44" from="CB" to="BE"/>
    <trip id="304" type="passenger" depart="853.25" from="AB" to="BA"/>
    <trip id="305" type="passenger" depart="856.06" from="DB" to="BC"/>
    <trip id="306" type="passenger" depart="858.86" from="DB" to="BC"/>
    <trip id="307" type="passenger" depart="861.67" from="CB" to="BC"/>
    <trip id="308" type="passenger" depart="864.48" from="DB" to="BC"/>
    <trip id="309" type="passenger" depart="867.28" from="DB" to="BC"/>
    <trip id="310" type="passenger" depart="870.09" from="BC" to="BA"/>
    <trip id="311" type="passenger" depart="872.90" from="AB" to="BA"/>
    <trip id="312" type="passenger" depart="875.70" from="CB" to="BE"/>
    <trip id="313" type="passenger" depart="878.51" from="AB" to="BA"/>
    <trip id="314" type="passenger" depart="881.32" from="CB" to="BE"/>
    <trip id="315" type="passenger" depart="884.12" from="EB" to="BD"/>
    <trip id="316" type="passenger" depart="886.93" from="BD" to="BA"/>
    <trip id="317" type="passenger" depart="889.74" from="AB" to="BA"/>
    <trip id="318" type="passenger" depart="892.54" from="AB" to="AB"/>
    <trip id="319" type="passenger" depart="895.35" from="CB" to="BC"/>
    <trip id="320" type="passenger" depart="898.16" from="EB" to="BD"/>
    <trip id="321" type="passenger" depart="900.96" from="DB" to="BA"/>
    <trip id="322" type="passenger" depart="903.77" from="EB" to="BD"/>
    <trip id="323" type="passenger" depart="906.58" from="EB" to="BD"/>
    <trip id="324" type="passenger" depart="909.38" from="CB" to="BC"/>
    <trip id="325" type="passenger" depart="912.19" from="AB" to="BA"/>
    <trip id="326" type="passenger" depart="915.00" from="EB" to="BD"/>
    <trip id="327" type="passenger" depart="917.80" from="EB" to="BC"/>
    <trip id="328" type="passenger" depart="920.61" from="AB" to="BD"/>
    <trip id="329" type="passenger" depart="923.42" from="AB" to="BA"/>
    <trip id="330" type="passenger" depart="926.22" from="DB" to="BC"/>
    <trip id="331" type="passenger" depart="929.03" from="EB" to="BA"/>
    <trip id="332" type="passenger" depart="931.84" from="DB" to="BD"/>
    <trip id="333" type="passenger" depart="934.64" from="EB" to="BA"/>
    <trip id="334" type="passenger" depart="937.45" from="CB" to="BC"/>
    <trip id="335" type="passenger" depart="940.26" from="CB" to="BE"/>
    <trip id="336" type="passenger" depart="943.07" from="EB" to="BC"/>
    <trip id="337" type="passenger" depart="945.87" from="DB" to="BD"/>
    <trip id="338" type="passenger" depart="948.68" from="DB" to="CB"/>
    <trip id="339" type="passenger" depart="951.49" from="AB" to="BA"/>
    <trip id="340" type="passenger" depart="954.29" from="DB" to="BA"/>
    <trip id="341" type="passenger" depart="957.10" from="AB" to="BA"/>
    <trip id="342" type="passenger" depart="959.91" from="AB" to="BC"/>
    <trip id="343" type="passenger" depart="962.71" from="DB" to="BC"/>
    <trip id="344" type="passenger" depart="965.52" from="BA" to="BE"/>
    <trip id="345" type="passenger" depart="968.33" from="DB" to="BC"/>
    <trip id="346" type="passenger" depart="971.13" from="DB" to="BE"/>
    <trip id="347" type="passenger" depart="973.94" from="EB" to="BD"/>
    <trip id="348" type="passenger" depart="976.75" from="DB" to="CB"/>
    <trip id="349" type="passenger" depart="979.55" from="CB" to="BD"/>
    <trip id="350" type="passenger" depart="982.36" from="DB" to="BE"/>
    <trip id="351" type="passenger" depart="985.17" from="EB" to="BA"/>
    <trip id="352" type="passenger" depart="987.97" from="AB" to="BC"/>
    <trip id="353" type="passenger" depart="990.78" from="DB" to="BD"/>
    <trip id="354" type="passenger" depart="993.59" from="BD" to="BA"/>
    <trip id="355" type="passenger" depart="996.39" from="DB" to="BD"/>
    <trip id="356" type="passenger" depart="999.20" from="EB" to="BD"/>
    <trip id="357" type="passenger" depart="1002.01" from="CB" to="BA"/>
    <trip id="358" type="passenger" depart="1004.81" from="AB" to="BC"/>
    <trip id="359" type="passenger" depart="1007.62" from="CB" to="BC"/>
    <trip id="360" type="passenger" depart="1010.43" from="AB" to="DB"/>
    <trip id="361" type="passenger" depart="1013.23" from="EB" to="BD"/>
    <trip id="362" type="passenger" depart="1016.04" from="EB" to="EB"/>
    <trip id="363" type="passenger" depart="1018.85" from="DB" to="BC"/>
    <trip id="364" type="passenger" depart="1021.65" from="AB" to="BE"/>
    <trip id="365" type="passenger" depart="1024.46" from="CB" to="BD"/>
    <trip id="366" type="passenger" depart="1027.27" from="EB" to="BA"/>
    <trip id="367" type="passenger" depart="1030.07" from="DB" to="BD"/>
    <trip id="368" type="passenger" depart="1032.88" from="CB" to="BA"/>
    <trip id="369" type="passenger" depart="1035.69" from="CB" to="BC"/>
    <trip id="370" type="passenger" depart="1038.49" from="DB" to="BE"/>
    <trip id="371" type="passenger" depart="1041.30" from="CB" to="BD"/>
    <trip id="372" type="passenger" depart="1044.11" from="BD" to="CB"/>
    <trip id="373" type="passenger" depart="1046.91" from="EB" to="BD"/>
    <trip id="374" type="passenger" depart="1049.72" from="CB" to="BC"/>
    <trip id="375" type="passenger" depart="1052.53" from="CB" to="DB"/>
    <trip id="376" type="passenger" depart="1055.33" from="CB" to="BD"/>
    <trip id="377" type="passenger" depart="1058.14" from="EB" to="BD"/>
    <trip id="378" type="passenger" depart="1060.95" from="CB" to="BC"/>
    <trip id="379" type="passenger" depart="1063.75" from="AB" to="BC"/>
    <trip id="380" type="passenger" depart="1066.56" from="DB" to="BD"/>
    <trip id="381" type="passenger" depart="1069.37" from="DB" to="BA"/>
    <trip id="382" type="passenger" depart="1072.18" from="DB" to="BE"/>
    <trip id="383" type="passenger" depart="1074.98" from="CB" to="BD"/>
    <trip id="384" type="passenger" depart="1077.79" from="AB" to="DB"/>
    <trip id="385" type="passenger" depart="1080.60" from="DB" to="BA"/>
    <trip id="386" type="passenger" depart="1083.40" from="AB" to="BD"/>
    <trip id="387" type="passenger" depart="1086.21" from="DB" to="BA"/>
    <trip id="388" type="passenger" depart="1089.02" from="EB" to="BE"/>
    <trip id="389" type="passenger" depart="1091.82" from="CB" to="BA"/>
    <trip id="390" type="passenger" depart="1094.63" from="EB" to="BD"/>
    <trip id="391" type="passenger" depart="1097.44" from="DB" to="BD"/>
    <trip id="392" type="passenger" depart="1100.24" from="BD" to="BE"/>
    <trip id="393" type="passenger" depart="1103.05" from="EB" to="BA"/>
    <trip id="394" type="passenger" depart="1105.86" from="DB" to="BC"/>
    <trip id="395" type="passenger" depart="1108.66" from="EB" to="BD"/>
    <trip id="396" type="passenger" depart="1111.47" from="EB" to="BE"/>